version 3
run General-0-20240315-09:59:00-2788
attr configname General
attr datetime 20240315-09:59:00
attr datetimef 20240315-095900
attr experiment General
attr inifile gna.ini
attr iterationvars ""
attr iterationvarsd ""
attr iterationvarsf ""
attr measurement ""
attr network txrx
attr processid 2788
attr repetition 0
attr replication #0
attr resultdir results
attr runnumber 0
attr seedset 0
config seed-0-mt 586455170
config network txrx
config **.scalar-recording true
config **.vector-recording true

scalar txrx.rx interArrivalTime 0.218417847165
scalar txrx.rx interArrivalTime 0.948755594878
scalar txrx.rx interArrivalTime 0.735275687992
scalar txrx.rx interArrivalTime 0.778482331791
scalar txrx.rx interArrivalTime 0.952544322681
scalar txrx.rx interArrivalTime 0.412423844176
scalar txrx.rx interArrivalTime 0.607545832455
scalar txrx.rx interArrivalTime 0.022801315888
scalar txrx.rx interArrivalTime 0.221715955167
scalar txrx.rx interArrivalTime 0.380056755794
scalar txrx.rx interArrivalTime 0.613891660056
scalar txrx.rx interArrivalTime 0.677125757875
scalar txrx.rx interArrivalTime 0.452607313382
scalar txrx.rx interArrivalTime 0.971112465938
scalar txrx.rx interArrivalTime 0.487207422725
scalar txrx.rx interArrivalTime 0.495149934429
scalar txrx.rx interArrivalTime 0.984944078599
scalar txrx.rx interArrivalTime 0.955121299231
scalar txrx.rx interArrivalTime 0.723668700887
scalar txrx.rx interArrivalTime 0.69985014
scalar txrx.rx interArrivalTime 0.381297497722
scalar txrx.rx interArrivalTime 0.467041229581
scalar txrx.rx interArrivalTime 0.561941913591
scalar txrx.rx interArrivalTime 0.557737321853
scalar txrx.rx interArrivalTime 0.891164012203
scalar txrx.rx interArrivalTime 0.793546115418
scalar txrx.rx interArrivalTime 0.129555616122
scalar txrx.rx interArrivalTime 0.441239156966
scalar txrx.rx interArrivalTime 0.906507670836
scalar txrx.rx interArrivalTime 0.674416643881
scalar txrx.rx interArrivalTime 0.92052843744
scalar txrx.rx interArrivalTime 0.321440843549
scalar txrx.rx interArrivalTime 0.456255017527
scalar txrx.rx interArrivalTime 0.278075998313
scalar txrx.rx interArrivalTime 0.623301468149
scalar txrx.rx interArrivalTime 0.827770294541
scalar txrx.rx interArrivalTime 0.335333878796
scalar txrx.rx interArrivalTime 0.956498304827
scalar txrx.rx interArrivalTime 0.867001748582
scalar txrx.rx interArrivalTime 0.698381631029
scalar txrx.rx interArrivalTime 0.700067239674
scalar txrx.rx interArrivalTime 0.03009171925
scalar txrx.rx interArrivalTime 0.751525204047
scalar txrx.rx interArrivalTime 0.884098542335
scalar txrx.rx interArrivalTime 0.044194098117
scalar txrx.rx interArrivalTime 0.77020670556
scalar txrx.rx interArrivalTime 0.864094320621
scalar txrx.rx interArrivalTime 0.833239921291
scalar txrx.rx interArrivalTime 0.263350616798
scalar txrx.rx interArrivalTime 0.133814454607
scalar txrx.rx interArrivalTime 0.019537527123
scalar txrx.rx interArrivalTime 0.367218207739
scalar txrx.rx interArrivalTime 0.836414595058
scalar txrx.rx interArrivalTime 0.620092600873
scalar txrx.rx interArrivalTime 0.896338016678
scalar txrx.rx interArrivalTime 0.753039289151
scalar txrx.rx interArrivalTime 0.33132686528
scalar txrx.rx interArrivalTime 0.610622163681
scalar txrx.rx interArrivalTime 0.726700202435
scalar txrx.rx interArrivalTime 0.650296632503
scalar txrx.rx interArrivalTime 0.535497394174
scalar txrx.rx interArrivalTime 0.104699693203
scalar txrx.rx interArrivalTime 0.687742849201
scalar txrx.rx interArrivalTime 0.894061136476
scalar txrx.rx interArrivalTime 0.485513751621
scalar txrx.rx interArrivalTime 0.029619696564
scalar txrx.rx interArrivalTime 0.818239917894
scalar txrx.rx interArrivalTime 0.15829364078
scalar txrx.rx interArrivalTime 0.441219357513
scalar txrx.rx interArrivalTime 0.573738276294
scalar txrx.rx interArrivalTime 0.819205188574
scalar txrx.rx interArrivalTime 0.381597950301
scalar txrx.rx interArrivalTime 0.516747722177
scalar txrx.rx interArrivalTime 0.978962588114
scalar txrx.rx interArrivalTime 0.424210773978
scalar txrx.rx interArrivalTime 0.710474937088
scalar txrx.rx interArrivalTime 0.952262079321
scalar txrx.rx interArrivalTime 0.6687596951
scalar txrx.rx interArrivalTime 0.844190312943
scalar txrx.rx interArrivalTime 0.306583019116
scalar txrx.rx interArrivalTime 0.740799887451
scalar txrx.rx interArrivalTime 0.62370258785
scalar txrx.rx interArrivalTime 0.569389118147
scalar txrx.rx interArrivalTime 0.72290423779
scalar txrx.rx interArrivalTime 0.851518871659
scalar txrx.rx interArrivalTime 0.477669312375
scalar txrx.rx interArrivalTime 0.188129355753
scalar txrx.rx interArrivalTime 0.890080667515
scalar txrx.rx interArrivalTime 0.58577196467
scalar txrx.rx interArrivalTime 0.069405625607
scalar txrx.rx interArrivalTime 0.500349027338
scalar txrx.rx interArrivalTime 0.366098548922
scalar txrx.rx interArrivalTime 0.018308863984
scalar txrx.rx interArrivalTime 0.717076830434
scalar txrx.rx interArrivalTime 0.910283496096
scalar txrx.rx interArrivalTime 0.134711760625
scalar txrx.rx interArrivalTime 0.100559764123
scalar txrx.rx interArrivalTime 0.107954825791
scalar txrx.rx interArrivalTime 0.396756217534
scalar txrx.rx interArrivalTime 0.281744990163
scalar txrx.rx interArrivalTime 0.288047471218
scalar txrx.rx interArrivalTime 0.213846504322
scalar txrx.rx interArrivalTime 0.118196469321
scalar txrx.rx interArrivalTime 0.528058953363
scalar txrx.rx interArrivalTime 0.08682504766
scalar txrx.rx interArrivalTime 0.268575343894
scalar txrx.rx interArrivalTime 0.945802727223
scalar txrx.rx interArrivalTime 0.10642903955
scalar txrx.rx interArrivalTime 0.752866887838
scalar txrx.rx interArrivalTime 0.433778002594
scalar txrx.rx interArrivalTime 0.506886210994
scalar txrx.rx interArrivalTime 0.236544214299
scalar txrx.rx interArrivalTime 0.598607876151
scalar txrx.rx interArrivalTime 0.802569787857
scalar txrx.rx interArrivalTime 0.790418238281
scalar txrx.rx interArrivalTime 0.559324610773
scalar txrx.rx interArrivalTime 0.568728887275
scalar txrx.rx interArrivalTime 0.626403983508
scalar txrx.rx interArrivalTime 0.971745924545
scalar txrx.rx interArrivalTime 0.133746228243
scalar txrx.rx interArrivalTime 0.87285703601
scalar txrx.rx interArrivalTime 0.108197385961
scalar txrx.rx interArrivalTime 0.473465004691
scalar txrx.rx interArrivalTime 0.526330131351
scalar txrx.rx interArrivalTime 0.030513499878
scalar txrx.rx interArrivalTime 0.840392205324
scalar txrx.rx interArrivalTime 0.47178830694
scalar txrx.rx interArrivalTime 0.346071052992
scalar txrx.rx interArrivalTime 0.416184925202
scalar txrx.rx interArrivalTime 0.820034619337
scalar txrx.rx interArrivalTime 0.321840778609
scalar txrx.rx interArrivalTime 0.177963558667
scalar txrx.rx interArrivalTime 0.033529129361
scalar txrx.rx interArrivalTime 0.52407690162
scalar txrx.rx interArrivalTime 0.160481430665
scalar txrx.rx interArrivalTime 0.211403929261
scalar txrx.rx interArrivalTime 0.06583743918
scalar txrx.rx interArrivalTime 0.529839787879
scalar txrx.rx interArrivalTime 0.017310735312
scalar txrx.rx interArrivalTime 0.94152825323
scalar txrx.rx interArrivalTime 0.265344668769
scalar txrx.rx interArrivalTime 0.647845924202
scalar txrx.rx interArrivalTime 0.346442997617
scalar txrx.rx interArrivalTime 0.667458236528
scalar txrx.rx interArrivalTime 0.97057610842
scalar txrx.rx interArrivalTime 0.472646612428
scalar txrx.rx interArrivalTime 0.771611386338
scalar txrx.rx interArrivalTime 0.472564145211
scalar txrx.rx interArrivalTime 0.385584869602
scalar txrx.rx interArrivalTime 0.52490037611
scalar txrx.rx interArrivalTime 0.000617169775
scalar txrx.rx interArrivalTime 0.372772409754
scalar txrx.rx interArrivalTime 0.185887822502
scalar txrx.rx interArrivalTime 0.216631340429
scalar txrx.rx interArrivalTime 0.922936903277
scalar txrx.rx interArrivalTime 0.800526152738
scalar txrx.rx interArrivalTime 0.443042797243
scalar txrx.rx interArrivalTime 0.220289792037
scalar txrx.rx interArrivalTime 0.410533038159
scalar txrx.rx interArrivalTime 0.82876912869
scalar txrx.rx interArrivalTime 0.122739405428
scalar txrx.rx interArrivalTime 0.881186074988
scalar txrx.rx interArrivalTime 0.094355420253
scalar txrx.rx interArrivalTime 0.831547461372
scalar txrx.rx interArrivalTime 0.818176766307
scalar txrx.rx interArrivalTime 0.096904921856
scalar txrx.rx interArrivalTime 0.681020879038
scalar txrx.rx interArrivalTime 0.91790866522
scalar txrx.rx interArrivalTime 0.290929172789
scalar txrx.rx interArrivalTime 0.646604791585
scalar txrx.rx interArrivalTime 0.486727104283
scalar txrx.rx interArrivalTime 0.422437879919
scalar txrx.rx interArrivalTime 0.913444498048
scalar txrx.rx interArrivalTime 0.261671542312
scalar txrx.rx interArrivalTime 0.913609588479
scalar txrx.rx interArrivalTime 0.036346408555
scalar txrx.rx interArrivalTime 0.874088307318
scalar txrx.rx interArrivalTime 0.802174258419
scalar txrx.rx interArrivalTime 0.142754976704
scalar txrx.rx interArrivalTime 0.282892349774
scalar txrx.rx interArrivalTime 0.571720429497
scalar txrx.rx interArrivalTime 0.905254077122
scalar txrx.rx interArrivalTime 0.605267108234
scalar txrx.rx interArrivalTime 0.724283356091
scalar txrx.rx interArrivalTime 0.030360155753
scalar txrx.rx interArrivalTime 0.26313750365
scalar txrx.rx interArrivalTime 0.552021780308
scalar txrx.rx interArrivalTime 0.8300573229
scalar txrx.rx interArrivalTime 0.773419481597
scalar txrx.rx interArrivalTime 0.861221142049
scalar txrx.rx interArrivalTime 0.543727670584
scalar txrx.rx interArrivalTime 0.430955245826
scalar txrx.rx interArrivalTime 0.064813223698
scalar txrx.rx interArrivalTime 0.315850179324
scalar txrx.rx interArrivalTime 0.493961424331
scalar txrx.rx interArrivalTime 0.009654867933
scalar txrx.rx interArrivalTime 0.269365274007
scalar txrx.rx interArrivalTime 0.222158130362
scalar txrx.rx interArrivalTime 0.811695252457
scalar txrx.rx interArrivalTime 0.162101700512
scalar txrx.rx interArrivalTime 0.443279233502
scalar txrx.rx interArrivalTime 0.194073997063
scalar txrx.rx interArrivalTime 0.801667114162
scalar txrx.rx interArrivalTime 0.619181442828
scalar txrx.rx interArrivalTime 0.582504772387
scalar txrx.rx interArrivalTime 0.157704945261
scalar txrx.rx interArrivalTime 0.547013775235
scalar txrx.rx interArrivalTime 0.660516087273
scalar txrx.rx interArrivalTime 0.293873634792
scalar txrx.rx interArrivalTime 0.134177647594
scalar txrx.rx interArrivalTime 0.123722054588
scalar txrx.rx interArrivalTime 0.39657048527
scalar txrx.rx interArrivalTime 0.160142828319
scalar txrx.rx interArrivalTime 0.520514309649
scalar txrx.rx interArrivalTime 0.283998191489
scalar txrx.rx interArrivalTime 0.157602131906
scalar txrx.rx interArrivalTime 0.819029707377
scalar txrx.rx interArrivalTime 0.432285481334
scalar txrx.rx interArrivalTime 0.422081395715
scalar txrx.rx interArrivalTime 0.922014472504
scalar txrx.rx interArrivalTime 0.297232161414
scalar txrx.rx interArrivalTime 0.580934567182
scalar txrx.rx interArrivalTime 0.767266079209
scalar txrx.rx interArrivalTime 0.440987268202
scalar txrx.rx interArrivalTime 0.673013228305
scalar txrx.rx interArrivalTime 0.333322858127
scalar txrx.rx interArrivalTime 0.157273939418
scalar txrx.rx interArrivalTime 0.303098572559
scalar txrx.rx interArrivalTime 0.177706630983
scalar txrx.rx interArrivalTime 0.715345545074
scalar txrx.rx interArrivalTime 0.812570454931
scalar txrx.rx interArrivalTime 0.871629668806
scalar txrx.rx interArrivalTime 0.479836794306
scalar txrx.rx interArrivalTime 0.616998137728
scalar txrx.rx interArrivalTime 0.887695963908
scalar txrx.rx interArrivalTime 0.506058452421
scalar txrx.rx interArrivalTime 0.324405878002
scalar txrx.rx interArrivalTime 0.289589041048
scalar txrx.rx interArrivalTime 0.123010620066
scalar txrx.rx interArrivalTime 0.439490494523
scalar txrx.rx interArrivalTime 0.516738008017
scalar txrx.rx interArrivalTime 0.815696698993
scalar txrx.rx interArrivalTime 0.414413597162
scalar txrx.rx interArrivalTime 0.049324260116
scalar txrx.rx interArrivalTime 0.99283938808
scalar txrx.rx interArrivalTime 0.651587696118
scalar txrx.rx interArrivalTime 0.234403557719
scalar txrx.rx interArrivalTime 0.620592748104
scalar txrx.rx interArrivalTime 0.302312526061
scalar txrx.rx interArrivalTime 0.966623147468
scalar txrx.rx interArrivalTime 0.035231935808
scalar txrx.rx interArrivalTime 0.143144850686
scalar txrx.rx interArrivalTime 0.835504356695
scalar txrx.rx interArrivalTime 0.321716435869
scalar txrx.rx interArrivalTime 0.08813513447
scalar txrx.rx interArrivalTime 0.287204344425
scalar txrx.rx interArrivalTime 0.043414503356
scalar txrx.rx interArrivalTime 0.667557568135
scalar txrx.rx interArrivalTime 0.640042413324
scalar txrx.rx interArrivalTime 0.192835730125
scalar txrx.rx interArrivalTime 0.990114696319
scalar txrx.rx interArrivalTime 0.85769328934
scalar txrx.rx interArrivalTime 0.251107230899
scalar txrx.rx interArrivalTime 0.359227761794
scalar txrx.rx interArrivalTime 0.540989652994
scalar txrx.rx interArrivalTime 0.413093629951
scalar txrx.rx interArrivalTime 0.864635356639
scalar txrx.rx interArrivalTime 0.926432263538
scalar txrx.rx interArrivalTime 0.547046024607
scalar txrx.rx interArrivalTime 0.202531289404
scalar txrx.rx interArrivalTime 0.943379421692
scalar txrx.rx interArrivalTime 0.377932995734
scalar txrx.rx interArrivalTime 0.919856340587
scalar txrx.rx interArrivalTime 0.0255090478
scalar txrx.rx interArrivalTime 0.730566167147
scalar txrx.rx interArrivalTime 0.62556552497
scalar txrx.rx interArrivalTime 0.879773275405
scalar txrx.rx interArrivalTime 0.349432847625
scalar txrx.rx interArrivalTime 0.917867304253
scalar txrx.rx interArrivalTime 0.595775402428
scalar txrx.rx interArrivalTime 0.197183953224
scalar txrx.rx interArrivalTime 0.070700297631
scalar txrx.rx interArrivalTime 0.259901726274
scalar txrx.rx interArrivalTime 0.168311449312
scalar txrx.rx interArrivalTime 0.810527266846
scalar txrx.rx interArrivalTime 0.531767542256
scalar txrx.rx interArrivalTime 0.417078534335
scalar txrx.rx interArrivalTime 0.838923311717
scalar txrx.rx interArrivalTime 0.784093467884
scalar txrx.rx interArrivalTime 0.258908586697
scalar txrx.rx interArrivalTime 0.476614593284
scalar txrx.rx interArrivalTime 0.46146560249
scalar txrx.rx interArrivalTime 0.852377436521
scalar txrx.rx interArrivalTime 0.907568933399
scalar txrx.rx interArrivalTime 0.511056537978
scalar txrx.rx interArrivalTime 0.327229795664
scalar txrx.rx interArrivalTime 0.751173167839
scalar txrx.rx interArrivalTime 0.967425995957
scalar txrx.rx interArrivalTime 0.528706475873
scalar txrx.rx interArrivalTime 0.969735858482
scalar txrx.rx interArrivalTime 0.350565920747
scalar txrx.rx interArrivalTime 0.961427254584
scalar txrx.rx interArrivalTime 0.707860275036
scalar txrx.rx interArrivalTime 0.007636984814
scalar txrx.rx interArrivalTime 0.354803705753
scalar txrx.rx interArrivalTime 0.185879817785
scalar txrx.rx interArrivalTime 0.08209605286
scalar txrx.rx interArrivalTime 0.788359775575
scalar txrx.rx interArrivalTime 0.962741920707
scalar txrx.rx interArrivalTime 0.803453790864
scalar txrx.rx interArrivalTime 0.647856759209
scalar txrx.rx interArrivalTime 0.528546957545
scalar txrx.rx interArrivalTime 0.288711326797
scalar txrx.rx interArrivalTime 0.371267215987
scalar txrx.rx interArrivalTime 0.888096194197
scalar txrx.rx interArrivalTime 0.232728910741
scalar txrx.rx interArrivalTime 0.474800999963
scalar txrx.rx interArrivalTime 0.980402664738
scalar txrx.rx interArrivalTime 0.627578578716
scalar txrx.rx interArrivalTime 0.713167568069
scalar txrx.rx interArrivalTime 0.207310962587
scalar txrx.rx interArrivalTime 0.275346581952
scalar txrx.rx interArrivalTime 0.750000718865
scalar txrx.rx interArrivalTime 0.262076088349
scalar txrx.rx interArrivalTime 0.712814837095
scalar txrx.rx interArrivalTime 0.278961473274
scalar txrx.rx interArrivalTime 0.505479141374
scalar txrx.rx interArrivalTime 0.587925115408
scalar txrx.rx interArrivalTime 0.257410067253
scalar txrx.rx interArrivalTime 0.290998314643
scalar txrx.rx interArrivalTime 0.808671924662
scalar txrx.rx interArrivalTime 0.34903146855
scalar txrx.rx interArrivalTime 0.171889192039
scalar txrx.rx interArrivalTime 0.941649256247
scalar txrx.rx interArrivalTime 0.299042372638
scalar txrx.rx interArrivalTime 0.005154585003
scalar txrx.rx interArrivalTime 0.633110097439
scalar txrx.rx interArrivalTime 0.681402696148
scalar txrx.rx interArrivalTime 0.335108830284
scalar txrx.rx interArrivalTime 0.174107959109
scalar txrx.rx interArrivalTime 0.232467389308
scalar txrx.rx interArrivalTime 0.079410282932
scalar txrx.rx interArrivalTime 0.648624616046
scalar txrx.rx interArrivalTime 0.43391680598
scalar txrx.rx interArrivalTime 0.839754706174
scalar txrx.rx interArrivalTime 0.757340095359
scalar txrx.rx interArrivalTime 0.614976764943
scalar txrx.rx interArrivalTime 0.914483584424
scalar txrx.rx interArrivalTime 0.725596254098
scalar txrx.rx interArrivalTime 0.096236947503
scalar txrx.rx interArrivalTime 0.454375931273
scalar txrx.rx interArrivalTime 0.696273356069
scalar txrx.rx interArrivalTime 0.266290002627
scalar txrx.rx interArrivalTime 0.53607206025
scalar txrx.rx interArrivalTime 0.763112423366
scalar txrx.rx interArrivalTime 0.630493532694
scalar txrx.rx interArrivalTime 0.704799056847
scalar txrx.rx interArrivalTime 0.557742912582
scalar txrx.rx interArrivalTime 0.985127401531
scalar txrx.rx interArrivalTime 0.036229826527
scalar txrx.rx interArrivalTime 0.914694153198
scalar txrx.rx interArrivalTime 0.264625646763
scalar txrx.rx interArrivalTime 0.563243072742
scalar txrx.rx interArrivalTime 0.426319170942
scalar txrx.rx interArrivalTime 0.14630268195
scalar txrx.rx interArrivalTime 0.909174390095
scalar txrx.rx interArrivalTime 0.493967209707
scalar txrx.rx interArrivalTime 0.106889679612
scalar txrx.rx interArrivalTime 0.494844403814
scalar txrx.rx interArrivalTime 0.849891029228
scalar txrx.rx interArrivalTime 0.118521590307
scalar txrx.rx interArrivalTime 0.992367357478
scalar txrx.rx interArrivalTime 0.718169361687
scalar txrx.rx interArrivalTime 0.272456258662
scalar txrx.rx interArrivalTime 0.172337204764
scalar txrx.rx interArrivalTime 0.471399117015
scalar txrx.rx interArrivalTime 0.804955982512
scalar txrx.rx interArrivalTime 0.895191784899
scalar txrx.rx interArrivalTime 0.488321797218
scalar txrx.rx interArrivalTime 0.224442027148
scalar txrx.rx interArrivalTime 0.197148521057
scalar txrx.rx interArrivalTime 0.475191861612
scalar txrx.rx interArrivalTime 0.549614399927
scalar txrx.rx interArrivalTime 0.369215280455
scalar txrx.rx interArrivalTime 0.401215721109
scalar txrx.rx interArrivalTime 0.232621532508
scalar txrx.rx interArrivalTime 0.670095034256
scalar txrx.rx interArrivalTime 0.287235491112
scalar txrx.rx interArrivalTime 0.566896864011
scalar txrx.rx interArrivalTime 0.835589003207
scalar txrx.rx interArrivalTime 0.74437036074
scalar txrx.rx interArrivalTime 0.632647126742
scalar txrx.rx interArrivalTime 0.900254202029
scalar txrx.rx interArrivalTime 0.572366453508
scalar txrx.rx interArrivalTime 0.762979631667
scalar txrx.rx interArrivalTime 0.398663464654
scalar txrx.rx interArrivalTime 0.336847313371
scalar txrx.rx interArrivalTime 0.392793189917
scalar txrx.rx interArrivalTime 0.675139863824
scalar txrx.rx interArrivalTime 0.075686007773
scalar txrx.rx interArrivalTime 0.054732054497
scalar txrx.rx interArrivalTime 0.881639511269
scalar txrx.rx interArrivalTime 0.715259004717
scalar txrx.rx interArrivalTime 0.358086687214
scalar txrx.rx interArrivalTime 0.362949199678
scalar txrx.rx interArrivalTime 0.087196145713
scalar txrx.rx interArrivalTime 0.505620315906
scalar txrx.rx interArrivalTime 0.960645482857
scalar txrx.rx interArrivalTime 0.568622861322
scalar txrx.rx interArrivalTime 0.84442579413
scalar txrx.rx interArrivalTime 0.264315340791
scalar txrx.rx interArrivalTime 0.347930606617
scalar txrx.rx interArrivalTime 0.669702683422
scalar txrx.rx interArrivalTime 0.69299502703
scalar txrx.rx interArrivalTime 0.167413876004
scalar txrx.rx interArrivalTime 0.725012693892
scalar txrx.rx interArrivalTime 0.288340565417
scalar txrx.rx interArrivalTime 0.13988070895
scalar txrx.rx interArrivalTime 0.975074221368
scalar txrx.rx interArrivalTime 0.072430908248
scalar txrx.rx interArrivalTime 0.346274358382
scalar txrx.rx interArrivalTime 0.83313861109
scalar txrx.rx interArrivalTime 0.56063006891
scalar txrx.rx interArrivalTime 0.509563777367
scalar txrx.rx interArrivalTime 0.238402225654
scalar txrx.rx interArrivalTime 0.826204698452
scalar txrx.rx interArrivalTime 0.022360414743
scalar txrx.rx interArrivalTime 0.811490405729
scalar txrx.rx interArrivalTime 0.719242733307
scalar txrx.rx interArrivalTime 0.312613058981
scalar txrx.rx interArrivalTime 0.08767984439
scalar txrx.rx interArrivalTime 0.635143984871
scalar txrx.rx interArrivalTime 0.864948749479
scalar txrx.rx interArrivalTime 0.193625730553
scalar txrx.rx interArrivalTime 0.267651881216
scalar txrx.rx interArrivalTime 0.425165501621
scalar txrx.rx interArrivalTime 0.756582420206
scalar txrx.rx interArrivalTime 0.880730481297
scalar txrx.rx interArrivalTime 0.437192267942
scalar txrx.rx interArrivalTime 0.890443878197
scalar txrx.rx interArrivalTime 0.690253894166
scalar txrx.rx interArrivalTime 0.097193849784
scalar txrx.rx interArrivalTime 0.537032558833
scalar txrx.rx interArrivalTime 0.906212100715
scalar txrx.rx interArrivalTime 0.70676963297
scalar txrx.rx interArrivalTime 0.677215801402
scalar txrx.rx interArrivalTime 0.965968857969
scalar txrx.rx interArrivalTime 0.038588327839
scalar txrx.rx interArrivalTime 0.554025693589
scalar txrx.rx interArrivalTime 0.509827813371
scalar txrx.rx interArrivalTime 0.676055336686
scalar txrx.rx interArrivalTime 0.462038388691
scalar txrx.rx interArrivalTime 0.479195113051
scalar txrx.rx interArrivalTime 0.832261303827
scalar txrx.rx interArrivalTime 0.815726912495
scalar txrx.rx interArrivalTime 0.922211913821
scalar txrx.rx interArrivalTime 0.615628379218
scalar txrx.rx interArrivalTime 0.866164700997
scalar txrx.rx interArrivalTime 0.630122880745
scalar txrx.rx interArrivalTime 0.475251746585
scalar txrx.rx interArrivalTime 0.556101139428
scalar txrx.rx interArrivalTime 0.391846016698
scalar txrx.rx interArrivalTime 0.755999569202
scalar txrx.rx interArrivalTime 0.084753658662
scalar txrx.rx interArrivalTime 0.454740468624
scalar txrx.rx interArrivalTime 0.823052611585
scalar txrx.rx interArrivalTime 0.045236472527
scalar txrx.rx interArrivalTime 0.289393409756
scalar txrx.rx interArrivalTime 0.835035500505
scalar txrx.rx interArrivalTime 0.44165046068
scalar txrx.rx interArrivalTime 0.819289190145
scalar txrx.rx interArrivalTime 0.793412353747
scalar txrx.rx interArrivalTime 0.881423220915
scalar txrx.rx interArrivalTime 0.080067012031
scalar txrx.rx interArrivalTime 0.686270573496
scalar txrx.rx interArrivalTime 0.149523376557
scalar txrx.rx interArrivalTime 0.039388620779
scalar txrx.rx interArrivalTime 0.004549118227
scalar txrx.rx interArrivalTime 0.457029999912
scalar txrx.rx interArrivalTime 0.303204949155
scalar txrx.rx interArrivalTime 0.965578077345
scalar txrx.rx interArrivalTime 0.47073837997
scalar txrx.rx interArrivalTime 0.699948465778
scalar txrx.rx interArrivalTime 0.033858845026
scalar txrx.rx interArrivalTime 0.065608090286
scalar txrx.rx interArrivalTime 0.675172922982
scalar txrx.rx interArrivalTime 0.631311266977
scalar txrx.rx interArrivalTime 0.448459142097
scalar txrx.rx interArrivalTime 0.252797707567
scalar txrx.rx interArrivalTime 0.771069106539
scalar txrx.rx interArrivalTime 0.358467571604
scalar txrx.rx interArrivalTime 0.764473148046
scalar txrx.rx interArrivalTime 0.500193231041
scalar txrx.rx interArrivalTime 0.747630186727
scalar txrx.rx interArrivalTime 0.420542471772
scalar txrx.rx interArrivalTime 0.057319785961
scalar txrx.rx interArrivalTime 0.373642192396
scalar txrx.rx interArrivalTime 0.804324678986
scalar txrx.rx interArrivalTime 0.284873415383
scalar txrx.rx interArrivalTime 0.867490113185
scalar txrx.rx interArrivalTime 0.906325519973
scalar txrx.rx interArrivalTime 0.61300708708
scalar txrx.rx interArrivalTime 0.810107760974
scalar txrx.rx interArrivalTime 0.481132354811
scalar txrx.rx interArrivalTime 0.391483549211
scalar txrx.rx interArrivalTime 0.664008525044
scalar txrx.rx interArrivalTime 0.99127521412
scalar txrx.rx interArrivalTime 0.362515963783
scalar txrx.rx interArrivalTime 0.805800460654
scalar txrx.rx interArrivalTime 0.088335909456
scalar txrx.rx interArrivalTime 0.661629538826
scalar txrx.rx interArrivalTime 0.007653862707
scalar txrx.rx interArrivalTime 0.638470459561
scalar txrx.rx interArrivalTime 0.773008846572
scalar txrx.rx interArrivalTime 0.959678288996
scalar txrx.rx interArrivalTime 0.31299564676
scalar txrx.rx interArrivalTime 0.51783265151
scalar txrx.rx interArrivalTime 0.213369873452
scalar txrx.rx interArrivalTime 0.107461432976
scalar txrx.rx interArrivalTime 0.104303193327
scalar txrx.rx interArrivalTime 0.023769434087
scalar txrx.rx interArrivalTime 0.492878512709
scalar txrx.rx interArrivalTime 0.809159241528
scalar txrx.rx interArrivalTime 0.53936602666
scalar txrx.rx interArrivalTime 0.124805856089
scalar txrx.rx interArrivalTime 0.612022304261
scalar txrx.rx interArrivalTime 0.258862926745
scalar txrx.rx interArrivalTime 0.709207781921
scalar txrx.rx interArrivalTime 0.655185192663
scalar txrx.rx interArrivalTime 0.697527957474
scalar txrx.rx interArrivalTime 0.352375801351
scalar txrx.rx interArrivalTime 0.380090550231
scalar txrx.rx interArrivalTime 0.181874755389
scalar txrx.rx interArrivalTime 0.769012399842
scalar txrx.rx interArrivalTime 0.791398119084
scalar txrx.rx interArrivalTime 0.028181255808
scalar txrx.rx interArrivalTime 0.642366148365
scalar txrx.rx interArrivalTime 0.247850541606
scalar txrx.rx interArrivalTime 0.624050841026
scalar txrx.rx interArrivalTime 0.422480240661
scalar txrx.rx interArrivalTime 0.625401482277
scalar txrx.rx interArrivalTime 0.122707739995
scalar txrx.rx interArrivalTime 0.348985138977
scalar txrx.rx interArrivalTime 0.393228062612
scalar txrx.rx interArrivalTime 0.98404523683
scalar txrx.rx interArrivalTime 0.848287695483
scalar txrx.rx interArrivalTime 0.171291336031
scalar txrx.rx interArrivalTime 0.893483337897
scalar txrx.rx interArrivalTime 0.774453036382
scalar txrx.rx interArrivalTime 0.232176412471
scalar txrx.rx interArrivalTime 0.188962578396
scalar txrx.rx interArrivalTime 0.894053620703
scalar txrx.rx interArrivalTime 0.359196151774
scalar txrx.rx interArrivalTime 0.009720054925
scalar txrx.rx interArrivalTime 0.364963053896
scalar txrx.rx interArrivalTime 0.934043968066
scalar txrx.rx interArrivalTime 0.476963969635
scalar txrx.rx interArrivalTime 0.333433927658
scalar txrx.rx interArrivalTime 0.024019534245
scalar txrx.rx interArrivalTime 0.696311870914
scalar txrx.rx interArrivalTime 0.913609004074
scalar txrx.rx interArrivalTime 0.026524315135
scalar txrx.rx interArrivalTime 0.794164264944
scalar txrx.rx interArrivalTime 0.518794706799
scalar txrx.rx interArrivalTime 0.382633103236
scalar txrx.rx interArrivalTime 0.914563091898
scalar txrx.rx interArrivalTime 0.06187836689
scalar txrx.rx interArrivalTime 0.989711842029
scalar txrx.rx interArrivalTime 0.086921239312
scalar txrx.rx interArrivalTime 0.885268440882
scalar txrx.rx interArrivalTime 0.706678981291
scalar txrx.rx interArrivalTime 0.153633019493
scalar txrx.rx interArrivalTime 0.110157412994
scalar txrx.rx interArrivalTime 0.415639325239
scalar txrx.rx interArrivalTime 0.65013603291
scalar txrx.rx interArrivalTime 0.836300033068
scalar txrx.rx interArrivalTime 0.6946492366
scalar txrx.rx interArrivalTime 0.969714103718
scalar txrx.rx interArrivalTime 0.984933602617
scalar txrx.rx interArrivalTime 0.779051470002
scalar txrx.rx interArrivalTime 0.518050222433
scalar txrx.rx interArrivalTime 0.87008438067
scalar txrx.rx interArrivalTime 0.508179120025
scalar txrx.rx interArrivalTime 0.966466279219
scalar txrx.rx interArrivalTime 0.398747272509
scalar txrx.rx interArrivalTime 0.745405947205
scalar txrx.rx interArrivalTime 0.037748846243
scalar txrx.rx interArrivalTime 0.444858511186
scalar txrx.rx interArrivalTime 0.736994016327
scalar txrx.rx interArrivalTime 0.658426647381
scalar txrx.rx interArrivalTime 0.17665738155
scalar txrx.rx interArrivalTime 0.080610325132
scalar txrx.rx interArrivalTime 0.81773386049
scalar txrx.rx interArrivalTime 0.652986852756
scalar txrx.rx interArrivalTime 0.750029163784
scalar txrx.rx interArrivalTime 0.740149854561
scalar txrx.rx interArrivalTime 0.698599821282
scalar txrx.rx interArrivalTime 0.367190818008
scalar txrx.rx interArrivalTime 0.376075381588
scalar txrx.rx interArrivalTime 0.698935410333
scalar txrx.rx interArrivalTime 0.007436002142
scalar txrx.rx interArrivalTime 0.976887950663
scalar txrx.rx interArrivalTime 0.555779146755
scalar txrx.rx interArrivalTime 0.980115162199
scalar txrx.rx interArrivalTime 0.795523415224
scalar txrx.rx interArrivalTime 0.362033450679
scalar txrx.rx interArrivalTime 0.696202727825
scalar txrx.rx interArrivalTime 0.079241098873
scalar txrx.rx interArrivalTime 0.805148138574
scalar txrx.rx interArrivalTime 0.124758710677
scalar txrx.rx interArrivalTime 0.81964937496
scalar txrx.rx interArrivalTime 0.847038535796
scalar txrx.rx interArrivalTime 0.176664488472
scalar txrx.rx interArrivalTime 0.200056372769
scalar txrx.rx interArrivalTime 0.347455566445
scalar txrx.rx interArrivalTime 0.685702524467
scalar txrx.rx interArrivalTime 0.602323354502
scalar txrx.rx interArrivalTime 0.248614407726
scalar txrx.rx interArrivalTime 0.462348703976
scalar txrx.rx interArrivalTime 0.694664105631
scalar txrx.rx interArrivalTime 0.219617900541
scalar txrx.rx interArrivalTime 0.118052672184
scalar txrx.rx interArrivalTime 0.111260474246
scalar txrx.rx interArrivalTime 0.9547897768
scalar txrx.rx interArrivalTime 0.151771199494
scalar txrx.rx interArrivalTime 0.81854871652
scalar txrx.rx interArrivalTime 0.348272149613
scalar txrx.rx interArrivalTime 0.410015824907
scalar txrx.rx interArrivalTime 0.135966011386
scalar txrx.rx interArrivalTime 0.180752306795
scalar txrx.rx interArrivalTime 0.904018891465
scalar txrx.rx interArrivalTime 0.845501776713
scalar txrx.rx interArrivalTime 0.348354593547
scalar txrx.rx interArrivalTime 0.79565102225
scalar txrx.rx interArrivalTime 0.506724723385
scalar txrx.rx interArrivalTime 0.522421967016
scalar txrx.rx interArrivalTime 0.345995546014
scalar txrx.rx interArrivalTime 0.147139150718
scalar txrx.rx interArrivalTime 0.96770496339
scalar txrx.rx interArrivalTime 0.217312116277
scalar txrx.rx interArrivalTime 0.364736568353
scalar txrx.rx interArrivalTime 0.127501446813
scalar txrx.rx interArrivalTime 0.91681559054
scalar txrx.rx interArrivalTime 0.919623036366
scalar txrx.rx interArrivalTime 0.104365002413
scalar txrx.rx interArrivalTime 0.062594730436
scalar txrx.rx interArrivalTime 0.029633950456
scalar txrx.rx interArrivalTime 0.057805079994
scalar txrx.rx interArrivalTime 0.529979002443
scalar txrx.rx interArrivalTime 0.357089914548
scalar txrx.rx interArrivalTime 0.610191010689
scalar txrx.rx interArrivalTime 0.480311867073
scalar txrx.rx interArrivalTime 0.60154614253
scalar txrx.rx interArrivalTime 0.18601280087
scalar txrx.rx interArrivalTime 0.317142758666
scalar txrx.rx interArrivalTime 0.218342419815
scalar txrx.rx interArrivalTime 0.681048129537
scalar txrx.rx interArrivalTime 0.37590779335
scalar txrx.rx interArrivalTime 0.882279900313
scalar txrx.rx interArrivalTime 0.478277663923
scalar txrx.rx interArrivalTime 0.412693810841
scalar txrx.rx interArrivalTime 0.144875581444
scalar txrx.rx interArrivalTime 0.923896191141
scalar txrx.rx interArrivalTime 0.923277270013
scalar txrx.rx interArrivalTime 0.521069885474
scalar txrx.rx interArrivalTime 0.621561087492
scalar txrx.rx interArrivalTime 0.577192609002
scalar txrx.rx interArrivalTime 0.876174971404
scalar txrx.rx interArrivalTime 0.872737524506
scalar txrx.rx interArrivalTime 0.09956754283
scalar txrx.rx interArrivalTime 0.431691569943
scalar txrx.rx interArrivalTime 0.440212651361
scalar txrx.rx interArrivalTime 0.654027977332
scalar txrx.rx interArrivalTime 0.248209892888
scalar txrx.rx interArrivalTime 0.6636678221
scalar txrx.rx interArrivalTime 0.265080841847
scalar txrx.rx interArrivalTime 0.213706852968
scalar txrx.rx interArrivalTime 0.771076156651
scalar txrx.rx interArrivalTime 0.476958802192
scalar txrx.rx interArrivalTime 0.246584707986
scalar txrx.rx interArrivalTime 0.349185189395
scalar txrx.rx interArrivalTime 0.755475426445
scalar txrx.rx interArrivalTime 0.27548634134
scalar txrx.rx interArrivalTime 0.098936749203
scalar txrx.rx interArrivalTime 0.829943074766
scalar txrx.rx interArrivalTime 0.853251090205
scalar txrx.rx interArrivalTime 0.591066396605
scalar txrx.rx interArrivalTime 0.052923110804
scalar txrx.rx interArrivalTime 0.478722869641
scalar txrx.rx interArrivalTime 0.895266318645
scalar txrx.rx interArrivalTime 0.741010459951
scalar txrx.rx interArrivalTime 0.162794591469
scalar txrx.rx interArrivalTime 0.0886975476
scalar txrx.rx interArrivalTime 0.739681819333
scalar txrx.rx interArrivalTime 0.832331735097
scalar txrx.rx interArrivalTime 0.999465262051
scalar txrx.rx interArrivalTime 0.012651476084
scalar txrx.rx interArrivalTime 0.633358438794
scalar txrx.rx interArrivalTime 0.855275857661
scalar txrx.rx interArrivalTime 0.62133300799
scalar txrx.rx interArrivalTime 0.743860426705
scalar txrx.rx interArrivalTime 0.062185813702
scalar txrx.rx interArrivalTime 0.156970399971
scalar txrx.rx interArrivalTime 0.201511078142
scalar txrx.rx interArrivalTime 0.796688761467
scalar txrx.rx interArrivalTime 0.948007748904
scalar txrx.rx interArrivalTime 0.166228405743
scalar txrx.rx interArrivalTime 0.800814022683
scalar txrx.rx interArrivalTime 0.28127296608
scalar txrx.rx interArrivalTime 0.354738705957
scalar txrx.rx interArrivalTime 0.093428238339
scalar txrx.rx interArrivalTime 0.248401024495
scalar txrx.rx interArrivalTime 0.876016735507
scalar txrx.rx interArrivalTime 0.213266813761
scalar txrx.rx interArrivalTime 0.375337215781
scalar txrx.rx interArrivalTime 0.292582692249
scalar txrx.rx interArrivalTime 0.437306340056
scalar txrx.rx interArrivalTime 0.807653902009
scalar txrx.rx interArrivalTime 0.239124743845
scalar txrx.rx interArrivalTime 0.969567930312
scalar txrx.rx interArrivalTime 0.528197161168
scalar txrx.rx interArrivalTime 0.409683616557
scalar txrx.rx interArrivalTime 0.552540268075
scalar txrx.rx interArrivalTime 0.544281211935
scalar txrx.rx interArrivalTime 0.734324734534
scalar txrx.rx interArrivalTime 0.795807571521
scalar txrx.rx interArrivalTime 0.137848324672
scalar txrx.rx interArrivalTime 0.816791688007
scalar txrx.rx interArrivalTime 0.817893937611
scalar txrx.rx interArrivalTime 0.343403026622
scalar txrx.rx interArrivalTime 0.574665740866
scalar txrx.rx interArrivalTime 0.40710223066
scalar txrx.rx interArrivalTime 0.167187519915
scalar txrx.rx interArrivalTime 0.920645904225
scalar txrx.rx interArrivalTime 0.295705099262
scalar txrx.rx interArrivalTime 0.915600985715
scalar txrx.rx interArrivalTime 0.505759746072
scalar txrx.rx interArrivalTime 0.304048270129
scalar txrx.rx interArrivalTime 0.139273673361
scalar txrx.rx interArrivalTime 0.772627085807
scalar txrx.rx interArrivalTime 0.543425113681
scalar txrx.rx interArrivalTime 0.345881391478
scalar txrx.rx interArrivalTime 0.228543859547
scalar txrx.rx interArrivalTime 0.136645622615
scalar txrx.rx interArrivalTime 0.602978222353
scalar txrx.rx interArrivalTime 0.254978366315
scalar txrx.rx interArrivalTime 0.421400659448
scalar txrx.rx interArrivalTime 0.480880047884
scalar txrx.rx interArrivalTime 0.150961027085
scalar txrx.rx interArrivalTime 0.201981041674
scalar txrx.rx interArrivalTime 0.695365842756
scalar txrx.rx interArrivalTime 0.01371375146
scalar txrx.rx interArrivalTime 0.48702068603
scalar txrx.rx interArrivalTime 0.356666294093
scalar txrx.rx interArrivalTime 0.490402023536
scalar txrx.rx interArrivalTime 0.186805737292
scalar txrx.rx interArrivalTime 0.644025202675
scalar txrx.rx interArrivalTime 0.131576315095
scalar txrx.rx interArrivalTime 0.403126780131
scalar txrx.rx interArrivalTime 0.351790514473
scalar txrx.rx interArrivalTime 0.543173990931
scalar txrx.rx interArrivalTime 0.125261326379
scalar txrx.rx interArrivalTime 0.267111468719
scalar txrx.rx interArrivalTime 0.342452668744
scalar txrx.rx interArrivalTime 0.602000906878
scalar txrx.rx interArrivalTime 0.829237190461
scalar txrx.rx interArrivalTime 0.989453594661
scalar txrx.rx interArrivalTime 0.746557725475
scalar txrx.rx interArrivalTime 0.395686223356
scalar txrx.rx interArrivalTime 0.298352846083
scalar txrx.rx interArrivalTime 0.416281788804
scalar txrx.rx interArrivalTime 0.448021167167
scalar txrx.rx interArrivalTime 0.891753062555
scalar txrx.rx interArrivalTime 0.693715391072
scalar txrx.rx interArrivalTime 0.27457232367
scalar txrx.rx interArrivalTime 0.737041772221
scalar txrx.rx interArrivalTime 0.461059946782
scalar txrx.rx interArrivalTime 0.034521949028
scalar txrx.rx interArrivalTime 0.210397041966
scalar txrx.rx interArrivalTime 0.143082682576
scalar txrx.rx interArrivalTime 0.790644928715
scalar txrx.rx interArrivalTime 0.369310733569
scalar txrx.rx interArrivalTime 0.005496196451
scalar txrx.rx interArrivalTime 0.374573715206
scalar txrx.rx interArrivalTime 0.460428529168
scalar txrx.rx interArrivalTime 0.422286119043
scalar txrx.rx interArrivalTime 0.362799451855
scalar txrx.rx interArrivalTime 0.57038449476
scalar txrx.rx interArrivalTime 0.452198971739
scalar txrx.rx interArrivalTime 0.108114480557
scalar txrx.rx interArrivalTime 0.080073875412
scalar txrx.rx interArrivalTime 0.801623430011
scalar txrx.rx interArrivalTime 0.884981916232
scalar txrx.rx interArrivalTime 0.891059194175
scalar txrx.rx interArrivalTime 0.031869526967
scalar txrx.rx interArrivalTime 0.631139491513
scalar txrx.rx interArrivalTime 0.561428919696
scalar txrx.rx interArrivalTime 0.93584893734
scalar txrx.rx interArrivalTime 0.813082549634
scalar txrx.rx interArrivalTime 0.47840533521
scalar txrx.rx interArrivalTime 0.558465122505
scalar txrx.rx interArrivalTime 0.12330957601
scalar txrx.rx interArrivalTime 0.464043035388
scalar txrx.rx interArrivalTime 0.171292135106
scalar txrx.rx interArrivalTime 0.906913387546
scalar txrx.rx interArrivalTime 0.493297384816
scalar txrx.rx interArrivalTime 0.84914274041
scalar txrx.rx interArrivalTime 0.542031431823
scalar txrx.rx interArrivalTime 0.922270408795
scalar txrx.rx interArrivalTime 0.598753405548
scalar txrx.rx interArrivalTime 0.24848236062
scalar txrx.rx interArrivalTime 0.243033000381
scalar txrx.rx interArrivalTime 0.655635505289
scalar txrx.rx interArrivalTime 0.265932256014
scalar txrx.rx interArrivalTime 0.523424747644
scalar txrx.rx interArrivalTime 0.19972955212
scalar txrx.rx interArrivalTime 0.854580915465
scalar txrx.rx interArrivalTime 0.941439537304
scalar txrx.rx interArrivalTime 0.774296103872
scalar txrx.rx interArrivalTime 0.594611710214
scalar txrx.rx interArrivalTime 0.63900891954
scalar txrx.rx interArrivalTime 0.822905714076
scalar txrx.rx interArrivalTime 0.57633002688
scalar txrx.rx interArrivalTime 0.378757262779
scalar txrx.rx interArrivalTime 0.773312560177
scalar txrx.rx interArrivalTime 0.064192844585
scalar txrx.rx interArrivalTime 0.889138432634
scalar txrx.rx interArrivalTime 0.749630316044
scalar txrx.rx interArrivalTime 0.036715885641
scalar txrx.rx interArrivalTime 0.083889687939
scalar txrx.rx interArrivalTime 0.933984527799
scalar txrx.rx interArrivalTime 0.477951413709
scalar txrx.rx interArrivalTime 0.929406462204
scalar txrx.rx interArrivalTime 0.534402995154
scalar txrx.rx interArrivalTime 0.711135363537
scalar txrx.rx interArrivalTime 0.05204940776
scalar txrx.rx interArrivalTime 0.794395810363
scalar txrx.rx interArrivalTime 0.410378555493
scalar txrx.rx interArrivalTime 0.232378954176
scalar txrx.rx interArrivalTime 0.593081018698
scalar txrx.rx interArrivalTime 0.912676616066
scalar txrx.rx interArrivalTime 0.355879070869
scalar txrx.rx interArrivalTime 0.259541304903
scalar txrx.rx interArrivalTime 0.11070947168
scalar txrx.rx interArrivalTime 0.694089653294
scalar txrx.rx interArrivalTime 0.5647974748
scalar txrx.rx interArrivalTime 0.551154544368
scalar txrx.rx interArrivalTime 0.254422879896
scalar txrx.rx interArrivalTime 0.085340426343
scalar txrx.rx interArrivalTime 0.316544882169
scalar txrx.rx interArrivalTime 0.169832141218
scalar txrx.rx interArrivalTime 0.368796116844
scalar txrx.rx interArrivalTime 0.356332914138
scalar txrx.rx interArrivalTime 0.887285135168
scalar txrx.rx interArrivalTime 0.601259828825
scalar txrx.rx interArrivalTime 0.373938359029
scalar txrx.rx interArrivalTime 0.781997267987
scalar txrx.rx interArrivalTime 0.028076931847
scalar txrx.rx interArrivalTime 0.88899333863
scalar txrx.rx interArrivalTime 0.311035398539
scalar txrx.rx interArrivalTime 0.571940806495
scalar txrx.rx interArrivalTime 0.609130285498
scalar txrx.rx interArrivalTime 0.652703603102
scalar txrx.rx interArrivalTime 0.98945223167
scalar txrx.rx interArrivalTime 0.723649942653
scalar txrx.rx interArrivalTime 0.384580507122
scalar txrx.rx interArrivalTime 0.644580194561
scalar txrx.rx interArrivalTime 0.459324944047
scalar txrx.rx interArrivalTime 0.874331002996
scalar txrx.rx interArrivalTime 0.88116051903
scalar txrx.rx interArrivalTime 0.664836449858
scalar txrx.rx interArrivalTime 0.906207564243
scalar txrx.rx interArrivalTime 0.630525143645
scalar txrx.rx interArrivalTime 0.236084307654
scalar txrx.rx interArrivalTime 0.868956891759
scalar txrx.rx interArrivalTime 0.558472989853
scalar txrx.rx interArrivalTime 0.255536084648
scalar txrx.rx interArrivalTime 0.794972679482
scalar txrx.rx interArrivalTime 0.10581783769
scalar txrx.rx interArrivalTime 0.480397226513
scalar txrx.rx interArrivalTime 0.036182237806
scalar txrx.rx interArrivalTime 0.114870520362
scalar txrx.rx interArrivalTime 0.628834827165
scalar txrx.rx interArrivalTime 0.826935233933
scalar txrx.rx interArrivalTime 0.300470246142
scalar txrx.rx interArrivalTime 0.003424556927
scalar txrx.rx interArrivalTime 0.556528254206
scalar txrx.rx interArrivalTime 0.570364078772
scalar txrx.rx interArrivalTime 0.109067464298
scalar txrx.rx interArrivalTime 0.096871605654
scalar txrx.rx interArrivalTime 0.121075464003
scalar txrx.rx interArrivalTime 0.915322556121
scalar txrx.rx interArrivalTime 0.826193562162
scalar txrx.rx interArrivalTime 0.835192794835
scalar txrx.rx interArrivalTime 0.085296252782
scalar txrx.rx interArrivalTime 0.574119842413
scalar txrx.rx interArrivalTime 0.232186941538
scalar txrx.rx interArrivalTime 0.365924613721
scalar txrx.rx interArrivalTime 0.094979940027
scalar txrx.rx interArrivalTime 0.327851282585
scalar txrx.rx interArrivalTime 0.196503846066
scalar txrx.rx interArrivalTime 0.640139298812
scalar txrx.rx interArrivalTime 0.821190117309
scalar txrx.rx interArrivalTime 0.742295193366
scalar txrx.rx interArrivalTime 0.755309092233
scalar txrx.rx interArrivalTime 0.479907242805
scalar txrx.rx interArrivalTime 0.801026063879
scalar txrx.rx interArrivalTime 0.845049338343
scalar txrx.rx interArrivalTime 0.744222919338
scalar txrx.rx interArrivalTime 0.1545994818
scalar txrx.rx interArrivalTime 0.353489401449
scalar txrx.rx interArrivalTime 0.096367390871
scalar txrx.rx interArrivalTime 0.646737619139
scalar txrx.rx interArrivalTime 0.719159802757
scalar txrx.rx interArrivalTime 0.918799305763
scalar txrx.rx interArrivalTime 0.259924760209
scalar txrx.rx interArrivalTime 0.555442804729
scalar txrx.rx interArrivalTime 0.327214738972
scalar txrx.rx interArrivalTime 0.498115344205
scalar txrx.rx interArrivalTime 0.824586155743
scalar txrx.rx interArrivalTime 0.819513114085
scalar txrx.rx interArrivalTime 0.556902016772
scalar txrx.rx interArrivalTime 0.852191535687
scalar txrx.rx interArrivalTime 0.783133624952
scalar txrx.rx interArrivalTime 0.126828437264
scalar txrx.rx interArrivalTime 0.605544111973
scalar txrx.rx interArrivalTime 0.37988519826
scalar txrx.rx interArrivalTime 0.730524177538
scalar txrx.rx interArrivalTime 0.91984615704
scalar txrx.rx interArrivalTime 0.854354179396
scalar txrx.rx interArrivalTime 0.130686430321
scalar txrx.rx interArrivalTime 0.446833389088
scalar txrx.rx interArrivalTime 0.928766905297
scalar txrx.rx interArrivalTime 0.785370057814
scalar txrx.rx interArrivalTime 0.714555541852
scalar txrx.rx interArrivalTime 0.534986311819
scalar txrx.rx interArrivalTime 0.514938554501
scalar txrx.rx interArrivalTime 0.572281462873
scalar txrx.rx interArrivalTime 0.334542019914
scalar txrx.rx interArrivalTime 0.647726079285
scalar txrx.rx interArrivalTime 0.332209474096
scalar txrx.rx interArrivalTime 0.444628535046
scalar txrx.rx interArrivalTime 0.871785032038
scalar txrx.rx interArrivalTime 0.091026632158
scalar txrx.rx interArrivalTime 0.884605961798
scalar txrx.rx interArrivalTime 0.572393017156
scalar txrx.rx interArrivalTime 0.20943486514
scalar txrx.rx interArrivalTime 0.971776771346
scalar txrx.rx interArrivalTime 0.652188407095
scalar txrx.rx interArrivalTime 0.330552945999
scalar txrx.rx interArrivalTime 0.603360814789
scalar txrx.rx interArrivalTime 0.685209437127
scalar txrx.rx interArrivalTime 0.31500442853
scalar txrx.rx interArrivalTime 0.279427832588
scalar txrx.rx interArrivalTime 0.343580124594
scalar txrx.rx interArrivalTime 0.551151363901
scalar txrx.rx interArrivalTime 0.200968777854
scalar txrx.rx interArrivalTime 0.682247827613
scalar txrx.rx interArrivalTime 0.539233350912
scalar txrx.rx interArrivalTime 0.894924553994
scalar txrx.rx interArrivalTime 0.996971966697
scalar txrx.rx interArrivalTime 0.107836479837
scalar txrx.rx interArrivalTime 0.407715776659
scalar txrx.rx interArrivalTime 0.479055124092
scalar txrx.rx interArrivalTime 0.479466872513
scalar txrx.rx interArrivalTime 0.399722574465
scalar txrx.rx interArrivalTime 0.137305902381
scalar txrx.rx interArrivalTime 0.700300245406
scalar txrx.rx interArrivalTime 0.946219062873
scalar txrx.rx interArrivalTime 0.103782306008
scalar txrx.rx interArrivalTime 0.269216263326
scalar txrx.rx interArrivalTime 0.717735621015
scalar txrx.rx interArrivalTime 0.982576789326
scalar txrx.rx interArrivalTime 0.168090517245
scalar txrx.rx interArrivalTime 0.097322026313
scalar txrx.rx interArrivalTime 0.691295481143
scalar txrx.rx interArrivalTime 0.603146163562
scalar txrx.rx interArrivalTime 0.077566265165
scalar txrx.rx interArrivalTime 0.65621801636
scalar txrx.rx interArrivalTime 0.056195828158
scalar txrx.rx interArrivalTime 0.483283420318
scalar txrx.rx interArrivalTime 0.544441509314
scalar txrx.rx interArrivalTime 0.428442781059
scalar txrx.rx interArrivalTime 0.837817910517
scalar txrx.rx interArrivalTime 0.205615510794
scalar txrx.rx interArrivalTime 0.77988830897
scalar txrx.rx interArrivalTime 0.582802759289
scalar txrx.rx interArrivalTime 0.165970812629
scalar txrx.rx interArrivalTime 0.471446556724
scalar txrx.rx interArrivalTime 0.602275177186
scalar txrx.rx interArrivalTime 0.438898244146
scalar txrx.rx interArrivalTime 0.562785922812
scalar txrx.rx interArrivalTime 0.743000292565
scalar txrx.rx interArrivalTime 0.605911329205
scalar txrx.rx interArrivalTime 0.551705208864
scalar txrx.rx interArrivalTime 0.509441058389
scalar txrx.rx interArrivalTime 0.175864351064
scalar txrx.rx interArrivalTime 0.752146955464
scalar txrx.rx interArrivalTime 0.333874599232
scalar txrx.rx interArrivalTime 0.43038668457
scalar txrx.rx interArrivalTime 0.509004195458
scalar txrx.rx interArrivalTime 0.833509075844
scalar txrx.rx interArrivalTime 0.787031178729
scalar txrx.rx interArrivalTime 0.633014742114
scalar txrx.rx interArrivalTime 0.07876575835
scalar txrx.rx interArrivalTime 0.816099971447
scalar txrx.rx interArrivalTime 0.192213725854
scalar txrx.rx interArrivalTime 0.536088920914
scalar txrx.rx interArrivalTime 0.046489600579
scalar txrx.rx interArrivalTime 0.350716576144
scalar txrx.rx interArrivalTime 0.493492499224
scalar txrx.rx interArrivalTime 0.128430590093
scalar txrx.rx interArrivalTime 0.532926693807
scalar txrx.rx interArrivalTime 0.898938641371
scalar txrx.rx interArrivalTime 0.461738482333
scalar txrx.rx interArrivalTime 0.438668951596
scalar txrx.rx interArrivalTime 0.709066048595
scalar txrx.rx interArrivalTime 0.273073182103
scalar txrx.rx interArrivalTime 0.54096946518
scalar txrx.rx interArrivalTime 0.073797043447
scalar txrx.rx interArrivalTime 0.306908641153
scalar txrx.rx interArrivalTime 0.213529463957
scalar txrx.rx interArrivalTime 0.789699051897
scalar txrx.rx interArrivalTime 0.471959050965
scalar txrx.rx interArrivalTime 0.215765867483
scalar txrx.rx interArrivalTime 0.37693309429
scalar txrx.rx interArrivalTime 0.114512775612
scalar txrx.rx interArrivalTime 0.616218820036
scalar txrx.rx interArrivalTime 0.78970351526
scalar txrx.rx interArrivalTime 0.546974800316
scalar txrx.rx interArrivalTime 0.005464632998
scalar txrx.rx interArrivalTime 0.844086754995
scalar txrx.rx interArrivalTime 0.566084586813
scalar txrx.rx interArrivalTime 0.183646138377
scalar txrx.rx interArrivalTime 0.540646270635
scalar txrx.rx interArrivalTime 0.641866329891
scalar txrx.rx interArrivalTime 0.84740144892
scalar txrx.rx interArrivalTime 0.276145368012
scalar txrx.rx interArrivalTime 0.175198012579
scalar txrx.rx interArrivalTime 0.552996041976
scalar txrx.rx interArrivalTime 0.20447316915
scalar txrx.rx interArrivalTime 0.5805523049
scalar txrx.rx interArrivalTime 0.342583904202
scalar txrx.rx interArrivalTime 0.807675248854
scalar txrx.rx interArrivalTime 0.597901163435
scalar txrx.rx interArrivalTime 0.924849181401
scalar txrx.rx interArrivalTime 0.940184569424
scalar txrx.rx interArrivalTime 0.682050953471
scalar txrx.rx interArrivalTime 0.230369651797
scalar txrx.rx interArrivalTime 0.822735956787
scalar txrx.rx interArrivalTime 0.72321928885
scalar txrx.rx interArrivalTime 0.146582039607
scalar txrx.rx interArrivalTime 0.60433852887
scalar txrx.rx interArrivalTime 0.117649985998
scalar txrx.rx interArrivalTime 0.343313744452
scalar txrx.rx interArrivalTime 0.074100310017
scalar txrx.rx interArrivalTime 0.403909883184
scalar txrx.rx interArrivalTime 0.513403517899
scalar txrx.rx interArrivalTime 0.772921307838
scalar txrx.rx interArrivalTime 0.488414784655
scalar txrx.rx interArrivalTime 0.787281877262
scalar txrx.rx interArrivalTime 0.846504984818
scalar txrx.rx interArrivalTime 0.209273206633
scalar txrx.rx interArrivalTime 0.254782246544
scalar txrx.rx interArrivalTime 0.125215677603
scalar txrx.rx interArrivalTime 0.499892490217
scalar txrx.rx interArrivalTime 0.693079172491
scalar txrx.rx interArrivalTime 0.58164662662
scalar txrx.rx interArrivalTime 0.734849057503
scalar txrx.rx interArrivalTime 0.608103693746
scalar txrx.rx interArrivalTime 0.398776031285
scalar txrx.rx interArrivalTime 0.228754685367
scalar txrx.rx interArrivalTime 0.679995171111
scalar txrx.rx interArrivalTime 0.678835542257
scalar txrx.rx interArrivalTime 0.188953406731
scalar txrx.rx interArrivalTime 0.739905451769
scalar txrx.rx interArrivalTime 0.590922090966
scalar txrx.rx interArrivalTime 0.627578237386
scalar txrx.rx interArrivalTime 0.707430839402
scalar txrx.rx interArrivalTime 0.790112299281
scalar txrx.rx interArrivalTime 0.417407836494
scalar txrx.rx interArrivalTime 0.373504684481
scalar txrx.rx interArrivalTime 0.493229143086
scalar txrx.rx interArrivalTime 0.702203979111
scalar txrx.rx interArrivalTime 0.942271430018
scalar txrx.rx interArrivalTime 0.755916946454
scalar txrx.rx interArrivalTime 0.696113135524
scalar txrx.rx interArrivalTime 0.573463307029
scalar txrx.rx interArrivalTime 0.1977967537
scalar txrx.rx interArrivalTime 0.370037884624
scalar txrx.rx interArrivalTime 0.226723976073
scalar txrx.rx interArrivalTime 0.549864087976
scalar txrx.rx interArrivalTime 0.565722301866
scalar txrx.rx interArrivalTime 0.094723030969
scalar txrx.rx interArrivalTime 0.009980753069
scalar txrx.rx interArrivalTime 0.746516750076
scalar txrx.rx interArrivalTime 0.707012686742
scalar txrx.rx interArrivalTime 0.762220539973
scalar txrx.rx interArrivalTime 0.640609364789
scalar txrx.rx interArrivalTime 0.721588999835
scalar txrx.rx interArrivalTime 0.746314574381
scalar txrx.rx interArrivalTime 0.309045773609
scalar txrx.rx interArrivalTime 0.132314629449
scalar txrx.rx interArrivalTime 0.811976110009
scalar txrx.rx interArrivalTime 0.882474574671
scalar txrx.rx interArrivalTime 0.750169595587
scalar txrx.rx interArrivalTime 0.10038716211
scalar txrx.rx interArrivalTime 0.207032797955
scalar txrx.rx interArrivalTime 0.600233602151
scalar txrx.rx interArrivalTime 0.126146660711
scalar txrx.rx interArrivalTime 0.146925578428
scalar txrx.rx interArrivalTime 0.378195489002
scalar txrx.rx interArrivalTime 0.331580689331
scalar txrx.rx interArrivalTime 0.876642996854
scalar txrx.rx interArrivalTime 0.738841256936
scalar txrx.rx interArrivalTime 0.704999549643
scalar txrx.rx interArrivalTime 0.927425327211
scalar txrx.rx interArrivalTime 0.237467183376
scalar txrx.rx interArrivalTime 0.110949149407
scalar txrx.rx interArrivalTime 0.722353214734
scalar txrx.rx interArrivalTime 0.590474387906
scalar txrx.rx interArrivalTime 0.103032911244
scalar txrx.rx interArrivalTime 0.674138477852
scalar txrx.rx interArrivalTime 0.2453919776
scalar txrx.rx interArrivalTime 0.302965595062
scalar txrx.rx interArrivalTime 0.94275384254
scalar txrx.rx interArrivalTime 0.863824183524
scalar txrx.rx interArrivalTime 0.293045720222
scalar txrx.rx interArrivalTime 0.219417477594
scalar txrx.rx interArrivalTime 0.749544212944
scalar txrx.rx interArrivalTime 0.589581078659
scalar txrx.rx interArrivalTime 0.089184401598
scalar txrx.rx interArrivalTime 0.922236966399
scalar txrx.rx interArrivalTime 0.036687044444
scalar txrx.rx interArrivalTime 0.599155681487
scalar txrx.rx interArrivalTime 0.009534059097
scalar txrx.rx interArrivalTime 0.238931166119
scalar txrx.rx interArrivalTime 0.716107099185
scalar txrx.rx interArrivalTime 0.612010395439
scalar txrx.rx interArrivalTime 0.058711359305
scalar txrx.rx interArrivalTime 0.761815375072
scalar txrx.rx interArrivalTime 0.831002871427
scalar txrx.rx interArrivalTime 0.665253573873
scalar txrx.rx interArrivalTime 0.916810872926
scalar txrx.rx interArrivalTime 0.840334089399
scalar txrx.rx interArrivalTime 0.495033945187
scalar txrx.rx interArrivalTime 0.035512891615
scalar txrx.rx interArrivalTime 0.865169088759
scalar txrx.rx interArrivalTime 0.896868003019
scalar txrx.rx interArrivalTime 0.66051971524
scalar txrx.rx interArrivalTime 0.354848877692
scalar txrx.rx interArrivalTime 0.945084594165
scalar txrx.rx interArrivalTime 0.036766727006
scalar txrx.rx interArrivalTime 0.938380510052
scalar txrx.rx interArrivalTime 0.361225099005
scalar txrx.rx interArrivalTime 0.110236156783
scalar txrx.rx interArrivalTime 0.739086192445
scalar txrx.rx interArrivalTime 0.821630646392
scalar txrx.rx interArrivalTime 0.146267473766
scalar txrx.rx interArrivalTime 0.317430436759
scalar txrx.rx interArrivalTime 0.053348124518
scalar txrx.rx interArrivalTime 0.621928352687
scalar txrx.rx interArrivalTime 0.749818735639
scalar txrx.rx interArrivalTime 0.203484024482
scalar txrx.rx interArrivalTime 0.955997870749
scalar txrx.rx interArrivalTime 0.456206194803
scalar txrx.rx interArrivalTime 0.45751248787
scalar txrx.rx interArrivalTime 0.412380058045
scalar txrx.rx interArrivalTime 0.871632330991
scalar txrx.rx interArrivalTime 0.524580147362
scalar txrx.rx interArrivalTime 0.618532602032
scalar txrx.rx interArrivalTime 0.677437511123
scalar txrx.rx interArrivalTime 0.692244135166
scalar txrx.rx interArrivalTime 0.547174312429
scalar txrx.rx interArrivalTime 0.358664713967
scalar txrx.rx interArrivalTime 0.077844835854
scalar txrx.rx interArrivalTime 0.338155590155
scalar txrx.rx interArrivalTime 0.381001093137
scalar txrx.rx interArrivalTime 0.485369365888
scalar txrx.rx interArrivalTime 0.602928687633
scalar txrx.rx interArrivalTime 0.422448337275
scalar txrx.rx interArrivalTime 0.089201271576
scalar txrx.rx interArrivalTime 0.205770671929
scalar txrx.rx interArrivalTime 0.387681502564
scalar txrx.rx interArrivalTime 0.763010555302
scalar txrx.rx interArrivalTime 0.918396994434
scalar txrx.rx interArrivalTime 0.498278257669
scalar txrx.rx interArrivalTime 0.562672744767
scalar txrx.rx interArrivalTime 0.840816897732
scalar txrx.rx interArrivalTime 0.609593596128
scalar txrx.rx interArrivalTime 0.439565346781
scalar txrx.rx interArrivalTime 0.774779908254
scalar txrx.rx interArrivalTime 0.725911965
scalar txrx.rx interArrivalTime 0.402390080691
scalar txrx.rx interArrivalTime 0.970083033186
scalar txrx.rx interArrivalTime 0.185531172056
scalar txrx.rx interArrivalTime 0.22240730106
scalar txrx.rx interArrivalTime 0.999507177621
scalar txrx.rx interArrivalTime 0.717126452232
scalar txrx.rx interArrivalTime 0.744277056188
scalar txrx.rx interArrivalTime 0.064477519162
scalar txrx.rx interArrivalTime 0.673664055613
scalar txrx.rx interArrivalTime 0.271777410652
scalar txrx.rx interArrivalTime 0.762938708422
scalar txrx.rx interArrivalTime 0.710866481397
scalar txrx.rx interArrivalTime 0.532947272776
scalar txrx.rx interArrivalTime 0.244809378053
scalar txrx.rx interArrivalTime 0.511215012759
scalar txrx.rx interArrivalTime 0.990715433839
scalar txrx.rx interArrivalTime 0.954288780668
scalar txrx.rx interArrivalTime 0.73152921802
scalar txrx.rx interArrivalTime 0.811561532231
scalar txrx.rx interArrivalTime 0.914665853099
scalar txrx.rx interArrivalTime 0.788985881391
scalar txrx.rx interArrivalTime 0.485702355618
scalar txrx.rx interArrivalTime 0.199487078562
scalar txrx.rx interArrivalTime 0.779327832991
scalar txrx.rx interArrivalTime 0.162882979569
scalar txrx.rx interArrivalTime 0.57423634947
scalar txrx.rx interArrivalTime 0.190321050207
scalar txrx.rx interArrivalTime 0.725889344572
scalar txrx.rx interArrivalTime 0.022208541176
scalar txrx.rx interArrivalTime 0.258951378176
scalar txrx.rx interArrivalTime 0.195810969079
scalar txrx.rx interArrivalTime 0.994955775791
scalar txrx.rx interArrivalTime 0.221715937472
scalar txrx.rx interArrivalTime 0.379759353762
scalar txrx.rx interArrivalTime 0.615455712478
scalar txrx.rx interArrivalTime 0.964154807834
scalar txrx.rx interArrivalTime 0.549847720913
scalar txrx.rx interArrivalTime 0.290641075136
scalar txrx.rx interArrivalTime 0.80454752818
scalar txrx.rx interArrivalTime 0.030299818157
scalar txrx.rx interArrivalTime 0.24904353416
scalar txrx.rx interArrivalTime 0.674676681252
scalar txrx.rx interArrivalTime 0.290976515641
scalar txrx.rx interArrivalTime 0.442296100521
scalar txrx.rx interArrivalTime 0.670557990051
scalar txrx.rx interArrivalTime 0.068133541415
scalar txrx.rx interArrivalTime 0.120430022069
scalar txrx.rx interArrivalTime 0.06737996315
scalar txrx.rx interArrivalTime 0.455040134236
scalar txrx.rx interArrivalTime 0.859532540133
scalar txrx.rx interArrivalTime 0.163395288476
scalar txrx.rx interArrivalTime 0.184612144802
scalar txrx.rx interArrivalTime 0.776316243585
scalar txrx.rx interArrivalTime 0.547099863899
scalar txrx.rx interArrivalTime 0.107408276809
scalar txrx.rx interArrivalTime 0.210907490557
scalar txrx.rx interArrivalTime 0.722192133647
scalar txrx.rx interArrivalTime 0.883184561917
scalar txrx.rx interArrivalTime 0.682925230676
scalar txrx.rx interArrivalTime 0.924346624373
scalar txrx.rx interArrivalTime 0.493708598192
scalar txrx.rx interArrivalTime 0.760405945014
scalar txrx.rx interArrivalTime 0.142711905829
scalar txrx.rx interArrivalTime 0.559000151492
scalar txrx.rx interArrivalTime 0.11554175481
scalar txrx.rx interArrivalTime 0.910272187046
scalar txrx.rx interArrivalTime 0.94464055679
scalar txrx.rx interArrivalTime 0.573830580606
scalar txrx.rx interArrivalTime 0.370563754984
scalar txrx.rx interArrivalTime 0.065027123347
scalar txrx.rx interArrivalTime 0.910861591301
scalar txrx.rx interArrivalTime 0.850757873082
scalar txrx.rx interArrivalTime 0.687566230394
scalar txrx.rx interArrivalTime 0.925628847408
scalar txrx.rx interArrivalTime 0.044031141346
scalar txrx.rx interArrivalTime 0.031392263263
scalar txrx.rx interArrivalTime 0.609768419345
scalar txrx.rx interArrivalTime 0.377819155984
scalar txrx.rx interArrivalTime 0.006551674105
scalar txrx.rx interArrivalTime 0.113986623992
scalar txrx.rx interArrivalTime 0.773188545729
scalar txrx.rx interArrivalTime 0.979882010715
scalar txrx.rx interArrivalTime 0.876946418955
scalar txrx.rx interArrivalTime 0.838456505369
scalar txrx.rx interArrivalTime 0.938479170175
scalar txrx.rx interArrivalTime 0.019405779438
scalar txrx.rx interArrivalTime 0.152934859578
scalar txrx.rx interArrivalTime 0.376183730725
scalar txrx.rx interArrivalTime 0.519959355947
scalar txrx.rx interArrivalTime 0.956891325748
scalar txrx.rx interArrivalTime 0.472504358027
scalar txrx.rx interArrivalTime 0.380741668577
scalar txrx.rx interArrivalTime 0.125220789632
scalar txrx.rx interArrivalTime 0.585810371947
scalar txrx.rx interArrivalTime 0.714916735755
scalar txrx.rx interArrivalTime 0.605572236053
scalar txrx.rx interArrivalTime 0.852566596052
scalar txrx.rx interArrivalTime 0.086773172993
scalar txrx.rx interArrivalTime 0.396717808394
scalar txrx.rx interArrivalTime 0.636202575469
scalar txrx.rx interArrivalTime 0.656680936765
scalar txrx.rx interArrivalTime 0.836499074398
scalar txrx.rx interArrivalTime 0.039936858248
scalar txrx.rx interArrivalTime 0.21877626107
scalar txrx.rx interArrivalTime 0.972618094633
scalar txrx.rx interArrivalTime 0.792308879919
scalar txrx.rx interArrivalTime 0.33533860619
scalar txrx.rx interArrivalTime 0.035951604618
scalar txrx.rx interArrivalTime 0.238618529047
scalar txrx.rx interArrivalTime 0.461615828547
scalar txrx.rx interArrivalTime 0.377226768703
scalar txrx.rx interArrivalTime 0.050298636337
scalar txrx.rx interArrivalTime 0.3691805221
scalar txrx.rx interArrivalTime 0.817032040477
scalar txrx.rx interArrivalTime 0.857497908109
scalar txrx.rx interArrivalTime 0.967334871631
scalar txrx.rx interArrivalTime 0.997179929166
scalar txrx.rx interArrivalTime 0.603061684688
scalar txrx.rx interArrivalTime 0.657729834159
scalar txrx.rx interArrivalTime 0.46531755918
scalar txrx.rx interArrivalTime 0.592213488925
scalar txrx.rx interArrivalTime 0.332103734059
scalar txrx.rx interArrivalTime 0.667455736393
scalar txrx.rx interArrivalTime 0.928556331866
scalar txrx.rx interArrivalTime 0.246262400526
scalar txrx.rx interArrivalTime 0.932163709277
scalar txrx.rx interArrivalTime 0.875454529596
scalar txrx.rx interArrivalTime 0.764272073174
scalar txrx.rx interArrivalTime 0.120727854837
scalar txrx.rx interArrivalTime 0.073055302293
scalar txrx.rx interArrivalTime 0.840465060827
scalar txrx.rx interArrivalTime 0.696270735793
scalar txrx.rx interArrivalTime 0.222251022804
scalar txrx.rx interArrivalTime 0.372938523243
scalar txrx.rx interArrivalTime 0.977757222009
scalar txrx.rx interArrivalTime 0.165622649791
scalar txrx.rx interArrivalTime 0.619873749847
scalar txrx.rx interArrivalTime 0.218108819434
scalar txrx.rx interArrivalTime 0.754926513301
scalar txrx.rx interArrivalTime 0.049903136701
scalar txrx.rx interArrivalTime 0.722018148155
scalar txrx.rx interArrivalTime 0.95901039008
scalar txrx.rx interArrivalTime 0.087618569884
scalar txrx.rx interArrivalTime 0.6053033595
scalar txrx.rx interArrivalTime 0.333558376568
scalar txrx.rx interArrivalTime 0.115632370634
scalar txrx.rx interArrivalTime 0.433252338522
scalar txrx.rx interArrivalTime 0.672050145302
scalar txrx.rx interArrivalTime 0.146786831388
scalar txrx.rx interArrivalTime 0.046273984502
scalar txrx.rx interArrivalTime 0.726857167076
scalar txrx.rx interArrivalTime 0.288401354239
scalar txrx.rx interArrivalTime 0.161558431183
scalar txrx.rx interArrivalTime 0.312551625218
scalar txrx.rx interArrivalTime 0.055162601664
scalar txrx.rx interArrivalTime 0.117845740224
scalar txrx.rx interArrivalTime 0.633355025497
scalar txrx.rx interArrivalTime 0.797908570989
scalar txrx.rx interArrivalTime 0.449346367479
scalar txrx.rx interArrivalTime 0.164394702839
scalar txrx.rx interArrivalTime 0.981769327531
scalar txrx.rx interArrivalTime 0.597080137859
scalar txrx.rx interArrivalTime 0.125872318226
scalar txrx.rx interArrivalTime 0.536051437508
scalar txrx.rx interArrivalTime 0.416506007973
scalar txrx.rx interArrivalTime 0.216472748302
scalar txrx.rx interArrivalTime 0.257479020049
scalar txrx.rx interArrivalTime 0.449887942732
scalar txrx.rx interArrivalTime 0.266649980688
scalar txrx.rx interArrivalTime 0.586223334347
scalar txrx.rx interArrivalTime 0.655575782366
scalar txrx.rx interArrivalTime 0.262169093016
scalar txrx.rx interArrivalTime 0.275944262871
scalar txrx.rx interArrivalTime 0.795223922373
scalar txrx.rx interArrivalTime 0.328457106058
scalar txrx.rx interArrivalTime 0.378578942445
scalar txrx.rx interArrivalTime 0.776282716904
scalar txrx.rx interArrivalTime 0.983616929959
scalar txrx.rx interArrivalTime 0.649734129035
scalar txrx.rx interArrivalTime 0.081501602699
scalar txrx.rx interArrivalTime 0.797435921988
scalar txrx.rx interArrivalTime 0.505534614672
scalar txrx.rx interArrivalTime 0.520264831614
scalar txrx.rx interArrivalTime 0.091020862614
scalar txrx.rx interArrivalTime 0.787637246674
scalar txrx.rx interArrivalTime 0.819198682354
scalar txrx.rx interArrivalTime 0.272247919008
scalar txrx.rx interArrivalTime 0.670772641744
scalar txrx.rx interArrivalTime 0.675784540677
scalar txrx.rx interArrivalTime 0.910769876051
scalar txrx.rx interArrivalTime 0.309299663785
scalar txrx.rx interArrivalTime 0.399446807056
scalar txrx.rx interArrivalTime 0.502483071528
scalar txrx.rx interArrivalTime 0.232979233485
scalar txrx.rx interArrivalTime 0.681975362674
scalar txrx.rx interArrivalTime 0.959915130846
scalar txrx.rx interArrivalTime 0.293596619411
scalar txrx.rx interArrivalTime 0.478380146193
scalar txrx.rx interArrivalTime 0.135113330155
scalar txrx.rx interArrivalTime 0.849738861364
scalar txrx.rx interArrivalTime 0.561036298313
scalar txrx.rx interArrivalTime 0.337061351788
scalar txrx.rx interArrivalTime 0.990136859934
scalar txrx.rx interArrivalTime 0.230197160612
scalar txrx.rx interArrivalTime 0.923676603904
scalar txrx.rx interArrivalTime 0.23267458297
scalar txrx.rx interArrivalTime 0.561714151204
scalar txrx.rx interArrivalTime 0.729734897022
scalar txrx.rx interArrivalTime 0.654408538087
scalar txrx.rx interArrivalTime 0.644294514621
scalar txrx.rx interArrivalTime 0.657902189837
scalar txrx.rx interArrivalTime 0.362099438609
scalar txrx.rx interArrivalTime 0.805261862839
scalar txrx.rx interArrivalTime 0.036122436652
scalar txrx.rx interArrivalTime 0.109792528259
scalar txrx.rx interArrivalTime 0.283021598255
scalar txrx.rx interArrivalTime 0.743999653842
scalar txrx.rx interArrivalTime 0.402176304908
scalar txrx.rx interArrivalTime 0.377153435432
scalar txrx.rx interArrivalTime 0.817786353555
scalar txrx.rx interArrivalTime 0.535237805701
scalar txrx.rx interArrivalTime 0.741796235899
scalar txrx.rx interArrivalTime 0.369330955376
scalar txrx.rx interArrivalTime 0.345364107911
scalar txrx.rx interArrivalTime 0.534558960486
scalar txrx.rx interArrivalTime 0.332444696842
scalar txrx.rx interArrivalTime 0.398017221781
scalar txrx.rx interArrivalTime 0.475443366205
scalar txrx.rx interArrivalTime 0.776652087819
scalar txrx.rx interArrivalTime 0.191633898388
scalar txrx.rx interArrivalTime 0.790928714811
scalar txrx.rx interArrivalTime 0.138903644001
scalar txrx.rx interArrivalTime 0.553543631245
scalar txrx.rx interArrivalTime 0.407806005984
scalar txrx.rx interArrivalTime 0.995539390014
scalar txrx.rx interArrivalTime 0.030520178392
scalar txrx.rx interArrivalTime 0.952637993243
scalar txrx.rx interArrivalTime 0.986744977993
scalar txrx.rx interArrivalTime 0.222837410971
scalar txrx.rx interArrivalTime 0.228364445841
scalar txrx.rx interArrivalTime 0.121239464321
scalar txrx.rx interArrivalTime 0.671675891928
scalar txrx.rx interArrivalTime 0.856710381274
scalar txrx.rx interArrivalTime 0.731371359309
scalar txrx.rx interArrivalTime 0.158430180586
scalar txrx.rx interArrivalTime 0.736043871723
scalar txrx.rx interArrivalTime 0.689346290515
scalar txrx.rx interArrivalTime 0.843099282981
scalar txrx.rx interArrivalTime 0.969642471042
scalar txrx.rx interArrivalTime 0.781003219439
scalar txrx.rx interArrivalTime 0.321103002094
scalar txrx.rx interArrivalTime 0.778153685284
scalar txrx.rx interArrivalTime 0.428982476904
scalar txrx.rx interArrivalTime 0.908485962035
scalar txrx.rx interArrivalTime 0.923556818591
scalar txrx.rx interArrivalTime 0.219442834714
scalar txrx.rx interArrivalTime 0.175721323665
scalar txrx.rx interArrivalTime 0.348285464732
scalar txrx.rx interArrivalTime 0.633803027511
scalar txrx.rx interArrivalTime 0.327478425264
scalar txrx.rx interArrivalTime 0.929890851923
scalar txrx.rx interArrivalTime 0.675540996099
scalar txrx.rx interArrivalTime 0.81751614428
scalar txrx.rx interArrivalTime 0.993830518329
scalar txrx.rx interArrivalTime 0.309513769722
scalar txrx.rx interArrivalTime 0.997925301547
scalar txrx.rx interArrivalTime 0.1305352925
scalar txrx.rx interArrivalTime 0.906660025896
scalar txrx.rx interArrivalTime 0.235048136318
scalar txrx.rx interArrivalTime 0.454025251537
scalar txrx.rx interArrivalTime 0.802399023344
scalar txrx.rx interArrivalTime 0.920379063543
scalar txrx.rx interArrivalTime 0.810913766181
scalar txrx.rx interArrivalTime 0.027661851154
scalar txrx.rx interArrivalTime 0.912732137326
scalar txrx.rx interArrivalTime 0.289024903108
scalar txrx.rx interArrivalTime 0.641544273422
scalar txrx.rx interArrivalTime 0.434598380902
scalar txrx.rx interArrivalTime 0.294984420899
scalar txrx.rx interArrivalTime 0.803159738799
scalar txrx.rx interArrivalTime 0.705723712084
scalar txrx.rx interArrivalTime 0.098423468926
scalar txrx.rx interArrivalTime 0.203241472227
scalar txrx.rx interArrivalTime 0.87942213187
scalar txrx.rx interArrivalTime 0.447763451118
scalar txrx.rx interArrivalTime 0.560319435112
scalar txrx.rx interArrivalTime 0.288741548214
scalar txrx.rx interArrivalTime 0.879198580924
scalar txrx.rx interArrivalTime 0.69054270987
scalar txrx.rx interArrivalTime 0.951319374587
scalar txrx.rx interArrivalTime 0.824721239891
scalar txrx.rx interArrivalTime 0.08987239799
scalar txrx.rx interArrivalTime 0.485392313211
scalar txrx.rx interArrivalTime 0.988604338369
scalar txrx.rx interArrivalTime 0.473107225948
scalar txrx.rx interArrivalTime 0.513142799266
scalar txrx.rx interArrivalTime 0.39102325141
scalar txrx.rx interArrivalTime 0.927783390473
scalar txrx.rx interArrivalTime 0.255436427079
scalar txrx.rx interArrivalTime 0.120027916096
scalar txrx.rx interArrivalTime 0.309184889453
scalar txrx.rx interArrivalTime 0.470434618402
scalar txrx.rx interArrivalTime 0.594627793224
scalar txrx.rx interArrivalTime 0.909316061022
scalar txrx.rx interArrivalTime 0.875030486786
scalar txrx.rx interArrivalTime 0.637384569104
scalar txrx.rx interArrivalTime 0.522447935083
scalar txrx.rx interArrivalTime 0.782440854135
scalar txrx.rx interArrivalTime 0.483429326435
scalar txrx.rx interArrivalTime 0.996685614808
scalar txrx.rx interArrivalTime 0.295120275717
scalar txrx.rx interArrivalTime 0.086471662897
scalar txrx.rx interArrivalTime 0.329237632141
scalar txrx.rx interArrivalTime 0.496880819321
scalar txrx.rx interArrivalTime 0.075926441269
scalar txrx.rx interArrivalTime 0.095697813246
scalar txrx.rx interArrivalTime 0.393146481082
scalar txrx.rx interArrivalTime 0.612904475356
scalar txrx.rx interArrivalTime 0.085512511006
scalar txrx.rx interArrivalTime 0.208771814689
scalar txrx.rx interArrivalTime 0.827887851199
scalar txrx.rx interArrivalTime 0.311108623776
scalar txrx.rx interArrivalTime 0.802637371608
scalar txrx.rx interArrivalTime 0.926298340748
scalar txrx.rx interArrivalTime 0.296205705635
scalar txrx.rx interArrivalTime 0.329292295188
scalar txrx.rx interArrivalTime 0.415602653015
scalar txrx.rx interArrivalTime 0.033785974623
scalar txrx.rx interArrivalTime 0.840875218548
scalar txrx.rx interArrivalTime 0.589791560355
scalar txrx.rx interArrivalTime 0.626750263212
scalar txrx.rx interArrivalTime 0.791668894138
scalar txrx.rx interArrivalTime 0.579097582763
scalar txrx.rx interArrivalTime 0.893068959887
scalar txrx.rx interArrivalTime 0.810001827222
scalar txrx.rx interArrivalTime 0.700703786547
scalar txrx.rx interArrivalTime 0.728535006628
scalar txrx.rx interArrivalTime 0.487850690022
scalar txrx.rx interArrivalTime 0.306543382959
scalar txrx.rx interArrivalTime 0.074634988827
scalar txrx.rx interArrivalTime 0.39025663137
scalar txrx.rx interArrivalTime 0.043200378792
scalar txrx.rx interArrivalTime 0.068766018873
scalar txrx.rx interArrivalTime 0.750478668488
scalar txrx.rx interArrivalTime 0.294975402437
scalar txrx.rx interArrivalTime 0.651586445352
scalar txrx.rx interArrivalTime 0.213381929888
scalar txrx.rx interArrivalTime 0.310093959472
scalar txrx.rx interArrivalTime 0.749174422933
scalar txrx.rx interArrivalTime 0.374520377896
scalar txrx.rx interArrivalTime 0.563988367824
scalar txrx.rx interArrivalTime 0.952493602388
scalar txrx.rx interArrivalTime 0.55996787807
scalar txrx.rx interArrivalTime 0.380122335805
scalar txrx.rx interArrivalTime 0.716094894668
scalar txrx.rx interArrivalTime 0.406889083519
scalar txrx.rx interArrivalTime 0.584823520661
scalar txrx.rx interArrivalTime 0.128907169275
scalar txrx.rx interArrivalTime 0.542793003164
scalar txrx.rx interArrivalTime 0.721999924035
scalar txrx.rx interArrivalTime 0.652717602743
scalar txrx.rx interArrivalTime 0.224744196155
scalar txrx.rx interArrivalTime 0.275703010743
scalar txrx.rx interArrivalTime 0.740499406466
scalar txrx.rx interArrivalTime 0.573518687661
scalar txrx.rx interArrivalTime 0.128579023354
scalar txrx.rx interArrivalTime 0.027644505272
scalar txrx.rx interArrivalTime 0.621199882413
scalar txrx.rx interArrivalTime 0.506418851906
scalar txrx.rx interArrivalTime 0.381640016279
scalar txrx.rx interArrivalTime 0.223750614665
scalar txrx.rx interArrivalTime 0.576578929358
scalar txrx.rx interArrivalTime 0.562061199249
scalar txrx.rx interArrivalTime 0.562571375893
scalar txrx.rx interArrivalTime 0.137110227317
scalar txrx.rx interArrivalTime 0.411589446204
scalar txrx.rx interArrivalTime 0.583819123257
scalar txrx.rx interArrivalTime 0.248000009101
scalar txrx.rx interArrivalTime 0.136151017685
scalar txrx.rx interArrivalTime 0.290153158964
scalar txrx.rx interArrivalTime 0.604140432833
scalar txrx.rx interArrivalTime 0.788249893947
scalar txrx.rx interArrivalTime 0.11596139293
scalar txrx.rx interArrivalTime 0.96313006336
scalar txrx.rx interArrivalTime 0.326967356879
scalar txrx.rx interArrivalTime 0.340364503367
scalar txrx.rx interArrivalTime 0.506205426299
scalar txrx.rx interArrivalTime 0.794595848208
scalar txrx.rx interArrivalTime 0.772414607356
scalar txrx.rx interArrivalTime 0.972299780684
scalar txrx.rx interArrivalTime 0.442406342571
scalar txrx.rx interArrivalTime 0.523396126704
scalar txrx.rx interArrivalTime 0.718697418328
scalar txrx.rx interArrivalTime 0.147504210541
scalar txrx.rx interArrivalTime 0.103265405215
scalar txrx.rx interArrivalTime 0.581664640727
scalar txrx.rx interArrivalTime 0.037612151372
scalar txrx.rx interArrivalTime 0.147427816013
scalar txrx.rx interArrivalTime 0.819302570922
scalar txrx.rx interArrivalTime 0.018303073486
scalar txrx.rx interArrivalTime 0.619755928693
scalar txrx.rx interArrivalTime 0.237888696714
scalar txrx.rx interArrivalTime 0.195323814729
scalar txrx.rx interArrivalTime 0.807352620553
scalar txrx.rx interArrivalTime 0.175487314898
scalar txrx.rx interArrivalTime 0.415300122656
scalar txrx.rx interArrivalTime 0.949158223322
scalar txrx.rx interArrivalTime 0.502251947998
scalar txrx.rx interArrivalTime 0.34848607534
scalar txrx.rx interArrivalTime 0.005465513563
scalar txrx.rx interArrivalTime 0.858886419264
scalar txrx.rx interArrivalTime 0.304041850057
scalar txrx.rx interArrivalTime 0.031371520381
scalar txrx.rx interArrivalTime 0.261142800684
scalar txrx.rx interArrivalTime 0.027049047419
scalar txrx.rx interArrivalTime 0.613339765749
scalar txrx.rx interArrivalTime 0.401438137238
scalar txrx.rx interArrivalTime 0.970769411871
scalar txrx.rx interArrivalTime 0.721497712993
scalar txrx.rx interArrivalTime 0.212056623871
scalar txrx.rx interArrivalTime 0.035675732436
scalar txrx.rx interArrivalTime 0.60203476511
scalar txrx.rx interArrivalTime 0.398292498383
scalar txrx.rx interArrivalTime 0.102017203859
scalar txrx.rx interArrivalTime 0.603144461104
scalar txrx.rx interArrivalTime 0.048953059152
scalar txrx.rx interArrivalTime 0.754064788462
scalar txrx.rx interArrivalTime 0.566893774814
scalar txrx.rx interArrivalTime 0.78366886954
scalar txrx.rx interArrivalTime 0.122684225031
scalar txrx.rx interArrivalTime 0.953769145046
scalar txrx.rx interArrivalTime 0.99801332876
scalar txrx.rx interArrivalTime 0.610008658194
scalar txrx.rx interArrivalTime 0.415513492383
scalar txrx.rx interArrivalTime 0.535263227082
scalar txrx.rx interArrivalTime 0.169053385579
scalar txrx.rx interArrivalTime 0.280250096824
scalar txrx.rx interArrivalTime 0.163375129999
scalar txrx.rx interArrivalTime 0.845808620493
scalar txrx.rx interArrivalTime 0.505478004229
scalar txrx.rx interArrivalTime 0.568813121677
scalar txrx.rx interArrivalTime 0.042131570653
scalar txrx.rx interArrivalTime 0.105307637297
scalar txrx.rx interArrivalTime 0.905459231187
scalar txrx.rx interArrivalTime 0.05329147915
scalar txrx.rx interArrivalTime 0.669889665055
scalar txrx.rx interArrivalTime 0.835595337597
scalar txrx.rx interArrivalTime 0.850832461776
scalar txrx.rx interArrivalTime 0.94117840563
scalar txrx.rx interArrivalTime 0.385456057911
scalar txrx.rx interArrivalTime 0.35996228613
scalar txrx.rx interArrivalTime 0.886140163469
scalar txrx.rx interArrivalTime 0.357720492109
scalar txrx.rx interArrivalTime 0.208308069598
scalar txrx.rx interArrivalTime 0.033724105001
scalar txrx.rx interArrivalTime 0.801032493264
scalar txrx.rx interArrivalTime 0.953108018708
scalar txrx.rx interArrivalTime 0.886462966393
scalar txrx.rx interArrivalTime 0.783069229118
scalar txrx.rx interArrivalTime 0.044527659679
scalar txrx.rx interArrivalTime 0.376375877939
scalar txrx.rx interArrivalTime 0.74937758164
scalar txrx.rx interArrivalTime 0.789008756536
scalar txrx.rx interArrivalTime 0.870164919118
scalar txrx.rx interArrivalTime 0.861788814357
scalar txrx.rx interArrivalTime 0.084596159907
[...]
scalar txrx.rx interArrivalTime 0.28991313525
scalar txrx.rx interArrivalTime 0.570061879032
scalar txrx.rx interArrivalTime 0.029996435172
scalar txrx.rx interArrivalTime 0.150085699814
scalar txrx.rx interArrivalTime 0.490355606419
scalar txrx.rx interArrivalTime 0.406673250444
scalar txrx.rx interArrivalTime 0.957317023518
scalar txrx.rx interArrivalTime 0.627206778446
scalar txrx.rx interArrivalTime 0.464320431214
scalar txrx.rx interArrivalTime 0.833483780191
scalar txrx.rx interArrivalTime 0.361887147819
scalar txrx.rx interArrivalTime 0.237290555722
scalar txrx.rx interArrivalTime 0.142368158392
scalar txrx.rx interArrivalTime 0.781636977932
scalar txrx.rx interArrivalTime 0.972681990346
scalar txrx.rx interArrivalTime 0.866204137852
scalar txrx.rx interArrivalTime 0.292938092394
scalar txrx.rx interArrivalTime 0.410516577964
scalar txrx.rx interArrivalTime 0.552122628108
scalar txrx.rx interArrivalTime 0.525006286113
scalar txrx.rx interArrivalTime 0.780646594139
scalar txrx.rx interArrivalTime 0.327301586665
scalar txrx.rx interArrivalTime 0.957764515634
scalar txrx.rx interArrivalTime 0.148206758382
scalar txrx.rx interArrivalTime 0.910986965015
scalar txrx.rx interArrivalTime 0.95791387882
scalar txrx.rx interArrivalTime 0.658553829258
scalar txrx.rx interArrivalTime 0.314203179122
scalar txrx.rx interArrivalTime 0.812829045492
scalar txrx.rx interArrivalTime 0.217761217718
scalar txrx.rx interArrivalTime 0.912784481381
scalar txrx.rx interArrivalTime 0.168771418821
scalar txrx.rx interArrivalTime 0.541234811089
scalar txrx.rx interArrivalTime 0.533465731206
scalar txrx.rx interArrivalTime 0.958540206756
scalar txrx.rx interArrivalTime 0.185247442306
scalar txrx.rx interArrivalTime 0.45376138224
scalar txrx.rx interArrivalTime 0.367547752507
scalar txrx.rx interArrivalTime 0.375073506206
scalar txrx.rx interArrivalTime 0.860415866999
scalar txrx.rx interArrivalTime 0.009469921239
scalar txrx.rx interArrivalTime 0.160966197104
scalar txrx.rx interArrivalTime 0.358873462937
scalar txrx.rx interArrivalTime 0.586288778384
scalar txrx.rx interArrivalTime 0.755493718086
scalar txrx.rx interArrivalTime 0.58291395222
scalar txrx.rx interArrivalTime 0.03479039531
scalar txrx.rx interArrivalTime 0.722173696254
scalar txrx.rx interArrivalTime 0.573307297459
scalar txrx.rx interArrivalTime 0.575743915316
scalar txrx.rx interArrivalTime 0.52798020352
scalar txrx.rx interArrivalTime 0.763276437653
scalar txrx.rx interArrivalTime 0.387081658648
scalar txrx.rx interArrivalTime 0.681433866583
scalar txrx.rx interArrivalTime 0.858990335771
scalar txrx.rx interArrivalTime 0.050566586689
scalar txrx.rx interArrivalTime 0.872622093126
scalar txrx.rx interArrivalTime 0.15951234715
scalar txrx.rx interArrivalTime 0.924017308244
scalar txrx.rx interArrivalTime 0.958892434351
scalar txrx.rx interArrivalTime 0.105136626449
scalar txrx.rx interArrivalTime 0.031279906179
scalar txrx.rx interArrivalTime 0.721382913516
scalar txrx.rx interArrivalTime 0.282621811276
scalar txrx.rx interArrivalTime 0.024779898126
scalar txrx.rx interArrivalTime 0.475747610664
scalar txrx.rx interArrivalTime 0.890088705295
scalar txrx.rx interArrivalTime 0.720862924457
scalar txrx.rx interArrivalTime 0.543165707748
scalar txrx.rx interArrivalTime 0.986045869992
scalar txrx.rx interArrivalTime 0.47292924089
scalar txrx.rx interArrivalTime 0.52174794186
scalar txrx.rx interArrivalTime 0.017654756092
scalar txrx.rx interArrivalTime 0.723485505545
scalar txrx.rx interArrivalTime 0.620886037881
scalar txrx.rx interArrivalTime 0.231633806709
scalar txrx.rx interArrivalTime 0.069387546307
scalar txrx.rx interArrivalTime 0.19649024084
scalar txrx.rx interArrivalTime 0.411476268159
scalar txrx.rx interArrivalTime 0.681635728423
scalar txrx.rx interArrivalTime 0.251682276023
scalar txrx.rx interArrivalTime 0.024011155602
scalar txrx.rx interArrivalTime 0.555492008829
scalar txrx.rx interArrivalTime 0.154188045838
scalar txrx.rx interArrivalTime 0.43848519327
scalar txrx.rx interArrivalTime 0.620639866041
scalar txrx.rx interArrivalTime 0.094223699576
scalar txrx.rx interArrivalTime 0.617718042628
scalar txrx.rx interArrivalTime 0.987137611484
scalar txrx.rx interArrivalTime 0.821828482124
scalar txrx.rx interArrivalTime 0.471292625401
scalar txrx.rx interArrivalTime 0.015151423875
scalar txrx.rx interArrivalTime 0.649980946281
scalar txrx.rx interArrivalTime 0.229759057625
scalar txrx.rx interArrivalTime 0.560479707346
scalar txrx.rx interArrivalTime 0.982436971731
scalar txrx.rx interArrivalTime 0.81817619075
scalar txrx.rx interArrivalTime 0.087231529452
scalar txrx.rx interArrivalTime 0.100314809522
scalar txrx.rx interArrivalTime 0.991002848833
scalar txrx.rx interArrivalTime 0.784872586739
scalar txrx.rx interArrivalTime 0.353559175671
scalar txrx.rx interArrivalTime 0.269062733403
scalar txrx.rx interArrivalTime 0.137358198006
scalar txrx.rx interArrivalTime 0.579232817785
scalar txrx.rx interArrivalTime 0.165963987431
scalar txrx.rx interArrivalTime 0.356735462489
scalar txrx.rx interArrivalTime 0.652915260593
scalar txrx.rx interArrivalTime 0.546779675664
scalar txrx.rx interArrivalTime 0.726004603191
scalar txrx.rx interArrivalTime 0.959360154792
scalar txrx.rx interArrivalTime 0.966114087946
scalar txrx.rx interArrivalTime 0.479468545168
scalar txrx.rx interArrivalTime 0.427834892845
scalar txrx.rx interArrivalTime 0.621040692842
scalar txrx.rx interArrivalTime 0.830919737849
scalar txrx.rx interArrivalTime 0.268027523657
scalar txrx.rx interArrivalTime 0.738588011236
scalar txrx.rx interArrivalTime 0.44869906709
scalar txrx.rx interArrivalTime 0.285217071085
scalar txrx.rx interArrivalTime 0.643311492001
scalar txrx.rx interArrivalTime 0.136241031408
scalar txrx.rx interArrivalTime 0.803013815918
scalar txrx.rx interArrivalTime 0.253197857297
scalar txrx.rx interArrivalTime 0.496385603909
scalar txrx.rx interArrivalTime 0.752841007781
scalar txrx.rx interArrivalTime 0.998811878263
scalar txrx.rx interArrivalTime 0.031230156324
scalar txrx.rx interArrivalTime 0.885237100946
scalar txrx.rx interArrivalTime 0.179948677393
scalar txrx.rx interArrivalTime 0.397419530152
scalar txrx.rx interArrivalTime 0.430040156203
scalar txrx.rx interArrivalTime 0.684901944681
scalar txrx.rx interArrivalTime 0.146978886401
scalar txrx.rx interArrivalTime 0.274142588151
scalar txrx.rx interArrivalTime 0.514476904885
scalar txrx.rx interArrivalTime 0.813336378342
scalar txrx.rx interArrivalTime 0.744504432075
scalar txrx.rx interArrivalTime 0.885984057507
scalar txrx.rx interArrivalTime 0.734047594356
scalar txrx.rx interArrivalTime 0.137912603159
scalar txrx.rx interArrivalTime 0.89712022147
scalar txrx.rx interArrivalTime 0.899555227207
scalar txrx.rx interArrivalTime 0.824696625036
scalar txrx.rx interArrivalTime 0.676170518937
scalar txrx.rx interArrivalTime 0.397906476817
scalar txrx.rx interArrivalTime 0.614152750752
scalar txrx.rx interArrivalTime 0.06527708241
scalar txrx.rx interArrivalTime 0.111923559621
scalar txrx.rx interArrivalTime 0.09926567371
scalar txrx.rx interArrivalTime 0.358177262059
scalar txrx.rx interArrivalTime 0.88524063159
scalar txrx.rx interArrivalTime 0.239288209118
scalar txrx.rx interArrivalTime 0.71692876784
scalar txrx.rx interArrivalTime 0.421795474562
scalar txrx.rx interArrivalTime 0.116537659018
scalar txrx.rx interArrivalTime 0.648434197366
scalar txrx.rx interArrivalTime 0.233550062977
scalar txrx.rx interArrivalTime 0.275906635577
scalar txrx.rx interArrivalTime 0.162821980735
scalar txrx.rx interArrivalTime 0.549028934701
scalar txrx.rx interArrivalTime 0.529301221729
scalar txrx.rx interArrivalTime 0.965629456549
scalar txrx.rx interArrivalTime 0.334268658578
scalar txrx.rx interArrivalTime 0.053342097464
scalar txrx.rx interArrivalTime 0.520631655362
scalar txrx.rx interArrivalTime 0.256227591194
scalar txrx.rx interArrivalTime 0.417123197772
scalar txrx.rx interArrivalTime 0.589581691935
scalar txrx.rx interArrivalTime 0.099491729913
scalar txrx.rx interArrivalTime 0.157503869924
scalar txrx.rx interArrivalTime 0.167540572662
scalar txrx.rx interArrivalTime 0.854403414696
scalar txrx.rx interArrivalTime 0.958184104859
scalar txrx.rx interArrivalTime 0.200242865924
scalar txrx.rx interArrivalTime 0.48184601659
scalar txrx.rx interArrivalTime 0.385997064126
scalar txrx.rx interArrivalTime 0.452653740743
scalar txrx.rx interArrivalTime 0.751417133841
scalar txrx.rx interArrivalTime 0.067762591908
scalar txrx.rx interArrivalTime 0.88588166185
scalar txrx.rx interArrivalTime 0.013083779725
scalar txrx.rx interArrivalTime 0.899085733527
scalar txrx.rx interArrivalTime 0.93391635033
scalar txrx.rx interArrivalTime 0.332092690436
scalar txrx.rx interArrivalTime 0.481845563036
scalar txrx.rx interArrivalTime 0.378374180467
scalar txrx.rx interArrivalTime 0.334848148904
scalar txrx.rx interArrivalTime 0.792836013154
scalar txrx.rx interArrivalTime 0.194866867827
scalar txrx.rx interArrivalTime 0.127446039173
scalar txrx.rx interArrivalTime 0.9855793924
scalar txrx.rx interArrivalTime 0.632840359878
scalar txrx.rx interArrivalTime 0.147923519904
scalar txrx.rx interArrivalTime 0.150597864832
scalar txrx.rx interArrivalTime 0.098313054581
scalar txrx.rx interArrivalTime 0.347507578948
scalar txrx.rx interArrivalTime 0.559876664337
scalar txrx.rx interArrivalTime 0.8470931262
scalar txrx.rx interArrivalTime 0.094165409493
scalar txrx.rx interArrivalTime 0.638036617841
scalar txrx.rx interArrivalTime 0.481431055107
scalar txrx.rx interArrivalTime 0.411739414284
scalar txrx.rx interArrivalTime 0.104332646869
scalar txrx.rx interArrivalTime 0.518795116115
scalar txrx.rx interArrivalTime 0.389512481815
scalar txrx.rx interArrivalTime 0.536278815724
scalar txrx.rx interArrivalTime 0.238051678165
scalar txrx.rx interArrivalTime 0.934553054597
scalar txrx.rx interArrivalTime 0.033181290623
scalar txrx.rx interArrivalTime 0.677951247747
scalar txrx.rx interArrivalTime 0.326615578647
scalar txrx.rx interArrivalTime 0.428027765559
scalar txrx.rx interArrivalTime 0.862652401842
scalar txrx.rx interArrivalTime 0.598910999763
scalar txrx.rx interArrivalTime 0.897168334526
scalar txrx.rx interArrivalTime 0.708191350898
scalar txrx.rx interArrivalTime 0.572028998086
scalar txrx.rx interArrivalTime 0.09136635861
scalar txrx.rx interArrivalTime 0.594388436803
scalar txrx.rx interArrivalTime 0.886452694371
scalar txrx.rx interArrivalTime 0.610427349624
scalar txrx.rx interArrivalTime 0.452460360924
scalar txrx.rx interArrivalTime 0.501282508718
scalar txrx.rx interArrivalTime 0.055120108209
scalar txrx.rx interArrivalTime 0.403658239825
scalar txrx.rx interArrivalTime 0.284033571968
scalar txrx.rx interArrivalTime 0.752241841868
scalar txrx.rx interArrivalTime 0.928630383186
scalar txrx.rx interArrivalTime 0.490842945637
scalar txrx.rx interArrivalTime 0.597383474278
scalar txrx.rx interArrivalTime 0.224047514714
scalar txrx.rx interArrivalTime 0.566578050874
scalar txrx.rx interArrivalTime 0.477296597081
scalar txrx.rx interArrivalTime 0.923903404234
scalar txrx.rx interArrivalTime 0.04450772891
scalar txrx.rx interArrivalTime 0.041399447267
scalar txrx.rx interArrivalTime 0.800509887655
scalar txrx.rx interArrivalTime 0.16967554538
scalar txrx.rx interArrivalTime 0.736889879562
scalar txrx.rx interArrivalTime 0.908200038089
scalar txrx.rx interArrivalTime 0.118033046889
scalar txrx.rx interArrivalTime 0.781418142738
scalar txrx.rx interArrivalTime 0.294718890588
scalar txrx.rx interArrivalTime 0.340391808814
scalar txrx.rx interArrivalTime 0.965128066933
scalar txrx.rx interArrivalTime 0.907413395079
scalar txrx.rx interArrivalTime 0.896923984353
scalar txrx.rx interArrivalTime 0.601398000308
scalar txrx.rx interArrivalTime 0.696186471123
scalar txrx.rx interArrivalTime 0.806014721657
scalar txrx.rx interArrivalTime 0.689420583979
scalar txrx.rx interArrivalTime 0.091749539176
scalar txrx.rx interArrivalTime 0.034504211058
scalar txrx.rx interArrivalTime 0.912274985068
scalar txrx.rx interArrivalTime 0.605666892885
scalar txrx.rx interArrivalTime 0.443463979961
scalar txrx.rx interArrivalTime 0.299107736116
scalar txrx.rx interArrivalTime 0.10371855884
scalar txrx.rx interArrivalTime 0.197817618119
scalar txrx.rx interArrivalTime 0.720706185662
scalar txrx.rx interArrivalTime 0.908856774172
scalar txrx.rx interArrivalTime 0.155796399878
scalar txrx.rx interArrivalTime 0.470091534532
scalar txrx.rx interArrivalTime 0.828417195859
scalar txrx.rx interArrivalTime 0.207804313026
scalar txrx.rx interArrivalTime 0.567087406557
scalar txrx.rx interArrivalTime 0.038037559501
scalar txrx.rx interArrivalTime 0.297262234752
scalar txrx.rx interArrivalTime 0.086377145763
scalar txrx.rx interArrivalTime 0.74068815901
scalar txrx.rx interArrivalTime 0.745882680521
scalar txrx.rx interArrivalTime 0.050205683825
scalar txrx.rx interArrivalTime 0.80692764968
scalar txrx.rx interArrivalTime 0.033001856894
scalar txrx.rx interArrivalTime 0.662208555575
scalar txrx.rx interArrivalTime 0.73918836086
scalar txrx.rx interArrivalTime 0.538775192825
scalar txrx.rx interArrivalTime 0.19466158617
scalar txrx.rx interArrivalTime 0.67727724308
scalar txrx.rx interArrivalTime 0.998619148973
scalar txrx.rx interArrivalTime 0.792028969988
scalar txrx.rx interArrivalTime 0.630892394404
scalar txrx.rx interArrivalTime 0.408467816845
scalar txrx.rx interArrivalTime 0.118594514261
scalar txrx.rx interArrivalTime 0.21800026168
scalar txrx.rx interArrivalTime 0.930396354259
scalar txrx.rx interArrivalTime 0.171518752897
scalar txrx.rx interArrivalTime 0.715678596737
scalar txrx.rx interArrivalTime 0.410169752971
scalar txrx.rx interArrivalTime 0.723034980112
scalar txrx.rx interArrivalTime 0.048905087658
scalar txrx.rx interArrivalTime 0.947807881026
scalar txrx.rx interArrivalTime 0.80704897866
scalar txrx.rx interArrivalTime 0.072178019244
scalar txrx.rx interArrivalTime 0.095968874682
scalar txrx.rx interArrivalTime 0.948876025131
scalar txrx.rx interArrivalTime 0.759346957672
scalar txrx.rx interArrivalTime 0.344311651934
scalar txrx.rx interArrivalTime 0.845931361823
scalar txrx.rx interArrivalTime 0.568391544543
scalar txrx.rx interArrivalTime 0.956684692743
scalar txrx.rx interArrivalTime 0.999623438343
scalar txrx.rx interArrivalTime 0.671120411563
scalar txrx.rx interArrivalTime 0.5207518919
scalar txrx.rx interArrivalTime 0.277043091262
scalar txrx.rx interArrivalTime 0.263232676435
scalar txrx.rx interArrivalTime 0.151590781357
scalar txrx.rx interArrivalTime 0.786261080665
scalar txrx.rx interArrivalTime 0.689976578434
scalar txrx.rx interArrivalTime 0.436348340212
scalar txrx.rx interArrivalTime 0.706550522105
scalar txrx.rx interArrivalTime 0.994619491042
scalar txrx.rx interArrivalTime 0.569778157663
scalar txrx.rx interArrivalTime 0.261491390067
scalar txrx.rx interArrivalTime 0.885790808539
scalar txrx.rx interArrivalTime 0.486112179927
scalar txrx.rx interArrivalTime 0.087404222734
scalar txrx.rx interArrivalTime 0.002770806664
scalar txrx.rx interArrivalTime 0.568947580908
scalar txrx.rx interArrivalTime 0.301987867012
scalar txrx.rx interArrivalTime 0.510078502591
scalar txrx.rx interArrivalTime 0.889389052004
scalar txrx.rx interArrivalTime 0.961790075974
scalar txrx.rx interArrivalTime 0.805799359831
scalar txrx.rx interArrivalTime 0.069834372527
scalar txrx.rx interArrivalTime 0.706298513667
scalar txrx.rx interArrivalTime 0.759113671612
scalar txrx.rx interArrivalTime 0.423472834948
scalar txrx.rx interArrivalTime 0.307933660833
scalar txrx.rx interArrivalTime 0.441035213154
scalar txrx.rx interArrivalTime 0.478824032694
scalar txrx.rx interArrivalTime 0.595513733847
scalar txrx.rx interArrivalTime 0.799320103507
scalar txrx.rx interArrivalTime 0.172973389352
scalar txrx.rx interArrivalTime 0.163753489109
scalar txrx.rx interArrivalTime 0.204890167436
scalar txrx.rx interArrivalTime 0.589042494813
scalar txrx.rx interArrivalTime 0.037205719872
scalar txrx.rx interArrivalTime 0.316533598265
scalar txrx.rx interArrivalTime 0.980183562255
scalar txrx.rx interArrivalTime 0.945123143003
scalar txrx.rx interArrivalTime 0.684657053409
scalar txrx.rx interArrivalTime 0.031091294732
scalar txrx.rx interArrivalTime 0.551390309609
scalar txrx.rx interArrivalTime 0.216929286819
scalar txrx.rx interArrivalTime 0.930521876519
scalar txrx.rx interArrivalTime 0.281171370429
scalar txrx.rx interArrivalTime 0.647220593713
scalar txrx.rx interArrivalTime 0.836513467523
scalar txrx.rx interArrivalTime 0.281842105688
scalar txrx.rx interArrivalTime 0.920268084817
scalar txrx.rx interArrivalTime 0.945694313359
scalar txrx.rx interArrivalTime 0.28431722861
scalar txrx.rx interArrivalTime 0.519659020714
scalar txrx.rx interArrivalTime 0.909157079137
scalar txrx.rx interArrivalTime 0.203021932488
scalar txrx.rx interArrivalTime 0.189617734491
scalar txrx.rx interArrivalTime 0.905262101863
scalar txrx.rx interArrivalTime 0.740138929682
scalar txrx.rx interArrivalTime 0.514985372087
scalar txrx.rx interArrivalTime 0.359144628215
scalar txrx.rx interArrivalTime 0.143763601847
scalar txrx.rx interArrivalTime 0.234855115523
scalar txrx.rx interArrivalTime 0.209924758044
scalar txrx.rx interArrivalTime 0.205406803268
scalar txrx.rx interArrivalTime 0.272140913304
scalar txrx.rx interArrivalTime 0.872327771444
scalar txrx.rx interArrivalTime 0.212847833155
scalar txrx.rx interArrivalTime 0.333530172861
scalar txrx.rx interArrivalTime 0.64161266463
scalar txrx.rx interArrivalTime 0.584049407665
scalar txrx.rx interArrivalTime 0.118390049841
scalar txrx.rx interArrivalTime 0.781566743637
scalar txrx.rx interArrivalTime 0.792254194986
scalar txrx.rx interArrivalTime 0.41624893314
scalar txrx.rx interArrivalTime 0.895816032261
scalar txrx.rx interArrivalTime 0.980047193347
scalar txrx.rx interArrivalTime 0.653170906311
scalar txrx.rx interArrivalTime 0.84341726538
scalar txrx.rx interArrivalTime 0.313972633478
scalar txrx.rx interArrivalTime 0.938048411598
scalar txrx.rx interArrivalTime 0.779646378839
scalar txrx.rx interArrivalTime 0.516683049741
scalar txrx.rx interArrivalTime 0.892012947189
scalar txrx.rx interArrivalTime 0.061596419225
scalar txrx.rx interArrivalTime 0.251017437433
par txrx.tx typename "\"nodo\""
par txrx.tx intervalo 1s
attr unit s
statistic txrx.tx "Inter-Arrival Time Histogram"
field count 0
field mean nan
field stddev nan
field min nan
field max nan
field sum 0
field sqrsum 0
bin	-inf	0
bin	0	0
bin	1	0
par txrx.rx typename "\"nodo\""
par txrx.rx intervalo 1s
attr unit s
statistic txrx.rx "Inter-Arrival Time Histogram"
field count 48300
field mean 0.49930639459137
field stddev 0.28816603369201
field min 1.1240132e-05
field max 0.999980500434
field sum 24116.498858763
field sqrsum 16052.254777307
bin	-inf	0
bin	0	930
bin	0.02	1017
bin	0.04	946
bin	0.06	985
bin	0.08	988
bin	0.1	985
bin	0.12	966
bin	0.14	924
bin	0.16	898
bin	0.18	951
bin	0.2	997
bin	0.22	951
bin	0.24	916
bin	0.26	985
bin	0.28	1033
bin	0.3	942
bin	0.32	990
bin	0.34	1092
bin	0.36	970
bin	0.38	913
bin	0.4	920
bin	0.42	992
bin	0.44	985
bin	0.46	966
bin	0.48	980
bin	0.5	982
bin	0.52	968
bin	0.54	974
bin	0.56	943
bin	0.58	933
bin	0.6	1011
bin	0.62	895
bin	0.64	972
bin	0.66	1045
bin	0.68	1000
bin	0.7	925
bin	0.72	944
bin	0.74	950
bin	0.76	987
bin	0.78	1000
bin	0.8	947
bin	0.82	953
bin	0.84	976
bin	0.86	930
bin	0.88	971
bin	0.9	937
bin	0.92	905
bin	0.94	976
bin	0.96	987
bin	0.98	967
bin	1	0
bin	1.02	0
bin	1.04	0
bin	1.06	0
bin	1.08	0
bin	1.1	0
bin	1.12	0
bin	1.14	0
bin	1.16	0
bin	1.18	0
bin	1.2	0
bin	1.22	0
bin	1.24	0
par txrx typename "\"txrx\""

