version 3
run General-0-20240323-10:51:22-15192
attr configname General
attr datetime 20240323-10:51:22
attr datetimef 20240323-105122
attr experiment General
attr inifile omnetpp.ini
attr iterationvars ""
attr iterationvarsd ""
attr iterationvarsf ""
attr measurement ""
attr network Network
attr processid 15192
attr repetition 0
attr replication #0
attr resultdir results
attr runnumber 0
attr seedset 0
config image-path ../inet4.4/images
config network Network
config sim-time-limit 600s
config *.server.numApps 1
config *.server.app[0].typename TcpGenericServerApp
config *.server.app[0].localAddress "\"server\""
config *.server.app[0].localPort 10021
config *.server.app[0].replyDelay 1s
config *.Ftpserver.numApps 1
config *.Ftpserver.app[0].typename TcpGenericServerApp
config *.Ftpserver.app[0].localAddress "\"Ftpserver\""
config *.Ftpserver.app[0].localPort 21
config *.Ftpserver.app[0].replyDelay 1s
config *.Httpserver.numApps 1
config *.Httpserver.app[0].typename TcpGenericServerApp
config *.Httpserver.app[0].localAddress "\"Httpserver\""
config *.Httpserver.app[0].localPort 80
config *.Httpserver.app[0].replyDelay 1s
config *.client.numApps 1
config *.client.app[0].typename TcpBasicClientApp
config *.client.app[0].connectAddress "\"server\""
config *.client.app[0].connectPort 10021
config *.client.app[0].requestLength 1024B
config *.client.app[0].replyLength 100B
config *.client.app[0].numRequestsPerSession 2
config *.client.app[0].thinkTime 1s
config *.client.app[0].idleInterval 20s
config *.FTP.numApps 1
config *.FTP.app[0].typename TcpBasicClientApp
config *.FTP.app[0].connectAddress "\"Ftpserver\""
config *.FTP.app[0].connectPort 21
config *.FTP.app[0].requestLength 1B*int(truncnormal(20,5))
config *.FTP.app[0].replyLength 1B*int(exponential(1000000))
config *.FTP.app[0].numRequestsPerSession int(exponential(3))
config *.FTP.app[0].thinkTime 1s
config *.FTP.app[0].idleInterval 20s
config *.HTTP.numApps 1
config *.HTTP.app[0].typename TcpBasicClientApp
config *.HTTP.app[0].connectAddress "\"Httpserver\""
config *.HTTP.app[0].connectPort 80
config *.HTTP.app[0].requestLength 1B*int(truncnormal(350,20))
config *.HTTP.app[0].replyLength 1B*int(exponential(2000))
config *.HTTP.app[0].numRequestsPerSession int(exponential(5))
config *.HTTP.app[0].thinkTime 1s
config *.HTTP.app[0].idleInterval 20s

par Network.ethernetSwitch.ethg$o[0].channel typename "\"GigabitEthernet\""
par Network.ethernetSwitch.ethg$o[0].channel disabled false
attr mutable ""
par Network.ethernetSwitch.ethg$o[0].channel delay 1e-06s
attr mutable ""
attr unit s
par Network.ethernetSwitch.ethg$o[0].channel datarate 1e+09bps
attr mutable ""
attr unit bps
par Network.ethernetSwitch.ethg$o[0].channel ber 1e-10
attr mutable ""
par Network.ethernetSwitch.ethg$o[0].channel per 0
attr mutable ""
par Network.server.ethg$o[0].channel typename "\"GigabitEthernet\""
par Network.server.ethg$o[0].channel disabled false
attr mutable ""
par Network.server.ethg$o[0].channel delay 1e-06s
attr mutable ""
attr unit s
par Network.server.ethg$o[0].channel datarate 1e+09bps
attr mutable ""
attr unit bps
par Network.server.ethg$o[0].channel ber 1e-10
attr mutable ""
par Network.server.ethg$o[0].channel per 0
attr mutable ""
par Network.ethernetSwitch.ethg$o[1].channel typename "\"GigabitEthernet\""
par Network.ethernetSwitch.ethg$o[1].channel disabled false
attr mutable ""
par Network.ethernetSwitch.ethg$o[1].channel delay 1e-06s
attr mutable ""
attr unit s
par Network.ethernetSwitch.ethg$o[1].channel datarate 1e+09bps
attr mutable ""
attr unit bps
par Network.ethernetSwitch.ethg$o[1].channel ber 1e-10
attr mutable ""
par Network.ethernetSwitch.ethg$o[1].channel per 0
attr mutable ""
par Network.client.ethg$o[0].channel typename "\"GigabitEthernet\""
par Network.client.ethg$o[0].channel disabled false
attr mutable ""
par Network.client.ethg$o[0].channel delay 1e-06s
attr mutable ""
attr unit s
par Network.client.ethg$o[0].channel datarate 1e+09bps
attr mutable ""
attr unit bps
par Network.client.ethg$o[0].channel ber 1e-10
attr mutable ""
par Network.client.ethg$o[0].channel per 0
attr mutable ""
par Network.ethernetSwitch.ethg$o[2].channel typename "\"GigabitEthernet\""
par Network.ethernetSwitch.ethg$o[2].channel disabled false
attr mutable ""
par Network.ethernetSwitch.ethg$o[2].channel delay 1e-06s
attr mutable ""
attr unit s
par Network.ethernetSwitch.ethg$o[2].channel datarate 1e+09bps
attr mutable ""
attr unit bps
par Network.ethernetSwitch.ethg$o[2].channel ber 1e-10
attr mutable ""
par Network.ethernetSwitch.ethg$o[2].channel per 0
attr mutable ""
par Network.FTP.ethg$o[0].channel typename "\"GigabitEthernet\""
par Network.FTP.ethg$o[0].channel disabled false
attr mutable ""
par Network.FTP.ethg$o[0].channel delay 1e-06s
attr mutable ""
attr unit s
par Network.FTP.ethg$o[0].channel datarate 1e+09bps
attr mutable ""
attr unit bps
par Network.FTP.ethg$o[0].channel ber 1e-10
attr mutable ""
par Network.FTP.ethg$o[0].channel per 0
attr mutable ""
par Network.ethernetSwitch.ethg$o[3].channel typename "\"GigabitEthernet\""
par Network.ethernetSwitch.ethg$o[3].channel disabled false
attr mutable ""
par Network.ethernetSwitch.ethg$o[3].channel delay 1e-06s
attr mutable ""
attr unit s
par Network.ethernetSwitch.ethg$o[3].channel datarate 1e+09bps
attr mutable ""
attr unit bps
par Network.ethernetSwitch.ethg$o[3].channel ber 1e-10
attr mutable ""
par Network.ethernetSwitch.ethg$o[3].channel per 0
attr mutable ""
par Network.HTTP.ethg$o[0].channel typename "\"GigabitEthernet\""
par Network.HTTP.ethg$o[0].channel disabled false
attr mutable ""
par Network.HTTP.ethg$o[0].channel delay 1e-06s
attr mutable ""
attr unit s
par Network.HTTP.ethg$o[0].channel datarate 1e+09bps
attr mutable ""
attr unit bps
par Network.HTTP.ethg$o[0].channel ber 1e-10
attr mutable ""
par Network.HTTP.ethg$o[0].channel per 0
attr mutable ""
par Network.ethernetSwitch.ethg$o[4].channel typename "\"GigabitEthernet\""
par Network.ethernetSwitch.ethg$o[4].channel disabled false
attr mutable ""
par Network.ethernetSwitch.ethg$o[4].channel delay 1e-06s
attr mutable ""
attr unit s
par Network.ethernetSwitch.ethg$o[4].channel datarate 1e+09bps
attr mutable ""
attr unit bps
par Network.ethernetSwitch.ethg$o[4].channel ber 1e-10
attr mutable ""
par Network.ethernetSwitch.ethg$o[4].channel per 0
attr mutable ""
par Network.Ftpserver.ethg$o[0].channel typename "\"GigabitEthernet\""
par Network.Ftpserver.ethg$o[0].channel disabled false
attr mutable ""
par Network.Ftpserver.ethg$o[0].channel delay 1e-06s
attr mutable ""
attr unit s
par Network.Ftpserver.ethg$o[0].channel datarate 1e+09bps
attr mutable ""
attr unit bps
par Network.Ftpserver.ethg$o[0].channel ber 1e-10
attr mutable ""
par Network.Ftpserver.ethg$o[0].channel per 0
attr mutable ""
par Network.ethernetSwitch.ethg$o[5].channel typename "\"GigabitEthernet\""
par Network.ethernetSwitch.ethg$o[5].channel disabled false
attr mutable ""
par Network.ethernetSwitch.ethg$o[5].channel delay 1e-06s
attr mutable ""
attr unit s
par Network.ethernetSwitch.ethg$o[5].channel datarate 1e+09bps
attr mutable ""
attr unit bps
par Network.ethernetSwitch.ethg$o[5].channel ber 1e-10
attr mutable ""
par Network.ethernetSwitch.ethg$o[5].channel per 0
attr mutable ""
par Network.Httpserver.ethg$o[0].channel typename "\"GigabitEthernet\""
par Network.Httpserver.ethg$o[0].channel disabled false
attr mutable ""
par Network.Httpserver.ethg$o[0].channel delay 1e-06s
attr mutable ""
attr unit s
par Network.Httpserver.ethg$o[0].channel datarate 1e+09bps
attr mutable ""
attr unit bps
par Network.Httpserver.ethg$o[0].channel ber 1e-10
attr mutable ""
par Network.Httpserver.ethg$o[0].channel per 0
attr mutable ""
par Network.configurator typename "\"inet.networklayer.configurator.ipv4.Ipv4NetworkConfigurator\""
par Network.configurator minLinkWeight 0.001
par Network.configurator configureIsolatedNetworksSeparatly false
par Network.configurator config "<config>...</config> at content:1"
par Network.configurator assignAddresses true
par Network.configurator assignUniqueAddresses true
par Network.configurator assignDisjunctSubnetAddresses true
par Network.configurator addStaticRoutes true
par Network.configurator addDefaultRoutes true
par Network.configurator addSubnetRoutes true
par Network.configurator addDirectRoutes true
par Network.configurator optimizeRoutes true
par Network.configurator dumpTopology false
par Network.configurator dumpLinks false
par Network.configurator dumpAddresses false
par Network.configurator dumpRoutes false
par Network.configurator dumpConfig "\"\""
par Network.client.ethg$i[0].channel typename "\"ned.IdealChannel\""
par Network.client.eth[0].phys$o.channel typename "\"ned.IdealChannel\""
par Network.client.interfaceTable typename "\"inet.networklayer.common.InterfaceTable\""
par Network.client.interfaceTable displayAddresses false
par Network.client.cb typename "\"inet.common.MessageDispatcher\""
par Network.client.cb displayStringTextFormat "\"processed %p pk (%l)\""
par Network.client.cb forwardServiceRegistration true
par Network.client.cb forwardProtocolRegistration true
par Network.client.bl typename "\"inet.common.MessageDispatcher\""
par Network.client.bl displayStringTextFormat "\"processed %p pk (%l)\""
par Network.client.bl forwardServiceRegistration true
par Network.client.bl forwardProtocolRegistration true
par Network.client.ethernet typename "\"inet.linklayer.ethernet.basic.EthernetEncapsulation\""
par Network.client.ethernet registerProtocol true
par Network.client.ethernet interfaceTableModule "\"Network.client.interfaceTable\""
par Network.client.ethernet fcsMode "\"declared\""
attr enum declared,computed
par Network.client.ethernet stopOperationExtraTime -1s
attr unit s
par Network.client.ethernet stopOperationTimeout 2s
attr unit s
scalar Network.client.ethernet decapPk:count 240
attr interpolationmode none
attr recordingmode count
attr source decapPk
attr title "packets decapsulated, count"
scalar Network.client.ethernet decapPk:sum(packetBytes) 15740
attr interpolationmode none
attr recordingmode sum(packetBytes)
attr source decapPk
attr title "packets decapsulated, sum(packetBytes)"
scalar Network.client.ethernet encapPk:count 255
attr interpolationmode none
attr recordingmode count
attr source encapPk
attr title "packets encapsulated, count"
scalar Network.client.ethernet encapPk:sum(packetBytes) 61440
attr interpolationmode none
attr recordingmode sum(packetBytes)
attr source encapPk
attr title "packets encapsulated, sum(packetBytes)"
scalar Network.client.ethernet pauseSent:count 0
attr recordingmode count
attr title "pause sent, count"
scalar Network.client.ethernet pauseSent:sum 0
attr recordingmode sum
attr title "pause sent, sum"
par Network.client.li typename "\"inet.common.MessageDispatcher\""
par Network.client.li displayStringTextFormat "\"processed %p pk (%l)\""
par Network.client.li forwardServiceRegistration true
par Network.client.li forwardProtocolRegistration true
par Network.client.lo[0].upperLayerIn.channel typename "\"ned.IdealChannel\""
par Network.client.lo[0].lo.upperLayerOut.channel typename "\"ned.IdealChannel\""
par Network.client.lo[0].lo typename "\"inet.linklayer.loopback.Loopback\""
par Network.client.lo[0].lo interfaceTableModule "\"Network.client.interfaceTable\""
par Network.client.lo[0].lo mtu 4470B
attr unit B
scalar Network.client.lo[0].lo rcvdPkFromHl:count 0
attr interpolationmode none
attr recordingmode count
attr source packetReceivedFromUpper
attr title "packets received from higher layer, count"
scalar Network.client.lo[0].lo rcvdPkFromHl:sum(packetBytes) 0
attr interpolationmode none
attr recordingmode sum(packetBytes)
attr source packetReceivedFromUpper
attr title "packets received from higher layer, sum(packetBytes)"
scalar Network.client.lo[0].lo passedUpPk:count 0
attr interpolationmode none
attr recordingmode count
attr source packetSentToUpper
attr title "packets passed to higher layer, count"
scalar Network.client.lo[0].lo passedUpPk:sum(packetBytes) 0
attr interpolationmode none
attr recordingmode sum(packetBytes)
attr source packetSentToUpper
attr title "packets passed to higher layer, sum(packetBytes)"
par Network.client.lo[0] typename "\"inet.linklayer.loopback.LoopbackInterface\""
par Network.client.lo[0] displayStringTextFormat "\"%a (%i)\\n%m\""
par Network.client.lo[0] recordPcap false
par Network.client.lo[0] numPcapRecorders 0
par Network.client.lo[0] interfaceTableModule "\"Network.client.interfaceTable\""
scalar Network.client.lo[0] packetDropInterfaceDown:count 0
attr interpolationmode none
attr recordingmode count
attr source packetDropReasonIsInterfaceDown(packetDropped)
attr title "packet drops: interface down, count"
scalar Network.client.lo[0] packetDropInterfaceDown:sum(packetBytes) 0
attr interpolationmode none
attr recordingmode sum(packetBytes)
attr source packetDropReasonIsInterfaceDown(packetDropped)
attr title "packet drops: interface down, sum(packetBytes)"
scalar Network.client.lo[0] packetDropNoCarrier:count 0
attr interpolationmode none
attr recordingmode count
attr source packetDropReasonIsNoCarrier(packetDropped)
attr title "packet drops: no carrier, count"
scalar Network.client.lo[0] packetDropNoCarrier:sum(packetBytes) 0
attr interpolationmode none
attr recordingmode sum(packetBytes)
attr source packetDropReasonIsNoCarrier(packetDropped)
attr title "packet drops: no carrier, sum(packetBytes)"
par Network.client.eth[0].mac.phys$o.channel typename "\"ned.IdealChannel\""
par Network.client.eth[0].phys$i.channel typename "\"ned.IdealChannel\""
par Network.client.eth[0].upperLayerIn.channel typename "\"ned.IdealChannel\""
par Network.client.eth[0].mac.upperLayerOut.channel typename "\"ned.IdealChannel\""
par Network.client.eth[0].queue typename "\"inet.linklayer.ethernet.common.EthernetQueue\""
par Network.client.eth[0].queue displayStringTextFormat "\"contains %p pk (%l) pushed %u\\npulled %o removed %r dropped %d\""
par Network.client.eth[0].queue packetCapacity 1000
par Network.client.eth[0].queue dataCapacity -1b
attr unit b
par Network.client.eth[0].queue dropperClass "\"inet::queueing::PacketAtCollectionEndDropper\""
par Network.client.eth[0].queue comparatorClass "\"inet::EthernetFrameTypeComparator\""
par Network.client.eth[0].queue bufferModule "\"\""
scalar Network.client.eth[0].queue queueLength:last 0
attr autoWarmupFilter false
attr interpolationmode sample-hold
attr recordingmode last
attr source "warmup(atomic(constant0(packetPushEnded) + count(packetPushStarted) - count(packetPulled) - count(packetRemoved) - count(packetDropped)))"
attr title "queue length, last"
attr unit pk
scalar Network.client.eth[0].queue queueLength:max 1
attr autoWarmupFilter false
attr interpolationmode sample-hold
attr recordingmode max
attr source "warmup(atomic(constant0(packetPushEnded) + count(packetPushStarted) - count(packetPulled) - count(packetRemoved) - count(packetDropped)))"
attr title "queue length, max"
attr unit pk
scalar Network.client.eth[0].queue queueLength:timeavg 5.6e-08
attr autoWarmupFilter false
attr interpolationmode sample-hold
attr recordingmode timeavg
attr source "warmup(atomic(constant0(packetPushEnded) + count(packetPushStarted) - count(packetPulled) - count(packetRemoved) - count(packetDropped)))"
attr title "queue length, timeavg"
attr unit pk
scalar Network.client.eth[0].queue queueBitLength:last 0
attr autoWarmupFilter false
attr interpolationmode sample-hold
attr recordingmode last
attr source "warmup(atomic(constant0(packetPushEnded) + sum(packetLength(packetPushStarted)) - sum(packetLength(packetPulled)) - sum(packetLength(packetRemoved)) - sum(packetLength(packetDropped))))"
attr title "queue bit length, last"
attr unit b
scalar Network.client.eth[0].queue queueBitLength:max 4752
attr autoWarmupFilter false
attr interpolationmode sample-hold
attr recordingmode max
attr source "warmup(atomic(constant0(packetPushEnded) + sum(packetLength(packetPushStarted)) - sum(packetLength(packetPulled)) - sum(packetLength(packetRemoved)) - sum(packetLength(packetDropped))))"
attr title "queue bit length, max"
attr unit b
scalar Network.client.eth[0].queue queueBitLength:timeavg 0.000146048
attr autoWarmupFilter false
attr interpolationmode sample-hold
attr recordingmode timeavg
attr source "warmup(atomic(constant0(packetPushEnded) + sum(packetLength(packetPushStarted)) - sum(packetLength(packetPulled)) - sum(packetLength(packetRemoved)) - sum(packetLength(packetDropped))))"
attr title "queue bit length, timeavg"
attr unit b
statistic Network.client.eth[0].queue queueingTime:histogram
field count 255
field mean 1.3176470588235e-07
field stddev 2.6732788179914e-07
field min 0
field max 6.72e-07
field sum 3.36e-05
field sqrsum 2.25792e-11
attr interpolationmode none
attr recordingmode histogram
attr source queueingTime(packetPulled)
attr title "queueing times"
attr unit s
bin	-inf	0
bin	0	205
bin	1e-08	0
bin	2e-08	0
bin	3e-08	0
bin	4e-08	0
bin	5e-08	0
bin	6e-08	0
bin	7e-08	0
bin	8e-08	0
bin	9e-08	0
bin	1e-07	0
bin	1.1e-07	0
bin	1.2e-07	0
bin	1.3e-07	0
bin	1.4e-07	0
bin	1.5e-07	0
bin	1.6e-07	0
bin	1.7e-07	0
bin	1.8e-07	0
bin	1.9e-07	0
bin	2e-07	0
bin	2.1e-07	0
bin	2.2e-07	0
bin	2.3e-07	0
bin	2.4e-07	0
bin	2.5e-07	0
bin	2.6e-07	0
bin	2.7e-07	0
bin	2.8e-07	0
bin	2.9e-07	0
bin	3e-07	0
bin	3.1e-07	0
bin	3.2e-07	0
bin	3.3e-07	0
bin	3.4e-07	0
bin	3.5e-07	0
bin	3.6e-07	0
bin	3.7e-07	0
bin	3.8e-07	0
bin	3.9e-07	0
bin	4e-07	0
bin	4.1e-07	0
bin	4.2e-07	0
bin	4.3e-07	0
bin	4.4e-07	0
bin	4.5e-07	0
bin	4.6e-07	0
bin	4.7e-07	0
bin	4.8e-07	0
bin	4.9e-07	0
bin	5e-07	0
bin	5.1e-07	0
bin	5.2e-07	0
bin	5.3e-07	0
bin	5.4e-07	0
bin	5.5e-07	0
bin	5.6e-07	0
bin	5.7e-07	0
bin	5.8e-07	0
bin	5.9e-07	0
bin	6e-07	0
bin	6.1e-07	0
bin	6.2e-07	0
bin	6.3e-07	0
bin	6.4e-07	0
bin	6.5e-07	0
bin	6.6e-07	0
bin	6.7e-07	50
bin	6.8e-07	0
bin	6.9e-07	0
bin	7e-07	0
bin	7.1e-07	0
bin	7.2e-07	0
bin	7.3e-07	0
bin	7.4e-07	0
bin	7.5e-07	0
bin	7.6e-07	0
bin	7.7e-07	0
bin	7.8e-07	0
bin	7.9e-07	0
bin	8e-07	0
bin	8.1e-07	0
bin	8.2e-07	0
bin	8.3e-07	0
bin	8.4e-07	0
scalar Network.client.eth[0].queue outgoingPackets:count 255
attr recordingmode count
attr source packetPulled
attr title "outgoing packets, count"
attr unit pk
scalar Network.client.eth[0].queue outgoingPacketLengths:sum 528240
attr interpolationmode none
attr recordingmode sum
attr source packetLength(packetPulled)
attr title "outgoing packet lengths, sum"
attr unit b
statistic Network.client.eth[0].queue outgoingPacketLengths:histogram
field count 255
field mean 2071.5294117647
field stddev 2006.4082606448
field min 368
field max 4752
field sum 528240
field sqrsum 2116785920
attr interpolationmode none
attr recordingmode histogram
attr source packetLength(packetPulled)
attr title "outgoing packet lengths"
attr unit b
bin	-inf	0
bin	0	0
bin	100	0
bin	200	0
bin	300	5
bin	400	150
bin	500	0
bin	600	0
bin	700	0
bin	800	0
bin	900	0
bin	1000	0
bin	1100	0
bin	1200	0
bin	1300	0
bin	1400	0
bin	1500	0
bin	1600	0
bin	1700	0
bin	1800	0
bin	1900	0
bin	2000	0
bin	2100	0
bin	2200	0
bin	2300	0
bin	2400	0
bin	2500	0
bin	2600	0
bin	2700	0
bin	2800	0
bin	2900	0
bin	3000	0
bin	3100	0
bin	3200	0
bin	3300	0
bin	3400	0
bin	3500	0
bin	3600	0
bin	3700	0
bin	3800	0
bin	3900	0
bin	4000	0
bin	4100	0
bin	4200	0
bin	4300	50
bin	4400	0
bin	4500	0
bin	4600	0
bin	4700	50
bin	4800	0
bin	4900	0
bin	5000	0
bin	5100	0
bin	5200	0
bin	5300	0
bin	5400	0
bin	5500	0
bin	5600	0
bin	5700	0
bin	5800	0
bin	5900	0
statistic Network.client.eth[0].queue flowQueueingTime:histogram
field count 0
field mean nan
field stddev nan
field min nan
field max nan
field sum 0
field sqrsum 0
attr interpolationmode none
attr recordingmode histogram
attr source queueingTime(demuxFlow(packetPulled))
attr title "flow queueing times"
attr unit s
bin	-inf	0
bin	0	0
bin	1	0
scalar Network.client.eth[0].queue incomingPackets:count 255
attr recordingmode count
attr source packetPushStarted
attr title "incoming packets, count"
attr unit pk
scalar Network.client.eth[0].queue incomingPacketLengths:sum 528240
attr interpolationmode none
attr recordingmode sum
attr source packetLength(packetPushStarted)
attr title "incoming packet lengths, sum"
attr unit b
statistic Network.client.eth[0].queue incomingPacketLengths:histogram
field count 255
field mean 2071.5294117647
field stddev 2006.4082606448
field min 368
field max 4752
field sum 528240
field sqrsum 2116785920
attr interpolationmode none
attr recordingmode histogram
attr source packetLength(packetPushStarted)
attr title "incoming packet lengths"
attr unit b
bin	-inf	0
bin	0	0
bin	100	0
bin	200	0
bin	300	5
bin	400	150
bin	500	0
bin	600	0
bin	700	0
bin	800	0
bin	900	0
bin	1000	0
bin	1100	0
bin	1200	0
bin	1300	0
bin	1400	0
bin	1500	0
bin	1600	0
bin	1700	0
bin	1800	0
bin	1900	0
bin	2000	0
bin	2100	0
bin	2200	0
bin	2300	0
bin	2400	0
bin	2500	0
bin	2600	0
bin	2700	0
bin	2800	0
bin	2900	0
bin	3000	0
bin	3100	0
bin	3200	0
bin	3300	0
bin	3400	0
bin	3500	0
bin	3600	0
bin	3700	0
bin	3800	0
bin	3900	0
bin	4000	0
bin	4100	0
bin	4200	0
bin	4300	50
bin	4400	0
bin	4500	0
bin	4600	0
bin	4700	50
bin	4800	0
bin	4900	0
bin	5000	0
bin	5100	0
bin	5200	0
bin	5300	0
bin	5400	0
bin	5500	0
bin	5600	0
bin	5700	0
bin	5800	0
bin	5900	0
scalar Network.client.eth[0].queue droppedPacketsQueueOverflow:count 0
attr interpolationmode none
attr recordingmode count
attr source packetDropReasonIsQueueOverflow(packetDropped)
attr title "dropped packets: queue overflow, count"
attr unit pk
scalar Network.client.eth[0].queue droppedPacketLengthsQueueOverflow:sum 0
attr interpolationmode none
attr recordingmode sum
attr source packetLength(packetDropReasonIsQueueOverflow(packetDropped))
attr title "dropped packet lengths: queue overflow, sum"
attr unit b
par Network.client.eth[0].mac typename "\"inet.linklayer.ethernet.basic.EthernetMac\""
par Network.client.eth[0].mac interfaceTableModule "\"Network.client.interfaceTable\""
par Network.client.eth[0].mac displayStringTextFormat "\"rate: %b\\nsent: %s, rcvd: %r\\nqueue: %q, drop: %d\""
par Network.client.eth[0].mac sendRawBytes false
par Network.client.eth[0].mac promiscuous false
par Network.client.eth[0].mac duplexMode true
par Network.client.eth[0].mac mtu 1500B
attr unit B
par Network.client.eth[0].mac fcsMode "\"declared\""
attr enum declared,computed
par Network.client.eth[0].mac stopOperationExtraTime -1s
attr unit s
par Network.client.eth[0].mac stopOperationTimeout 2s
attr unit s
scalar Network.client.eth[0].mac "simulated time" 600
scalar Network.client.eth[0].mac full-duplex 1
scalar Network.client.eth[0].mac "frames/sec sent" 0.425
scalar Network.client.eth[0].mac "frames/sec rcvd" 0.4
scalar Network.client.eth[0].mac "bits/sec sent" 892.26666666667
scalar Network.client.eth[0].mac "bits/sec rcvd" 267.46666666667
scalar Network.client.eth[0].mac "rx channel idle (%)" 99.999970693333
scalar Network.client.eth[0].mac "rx channel utilization (%)" 2.9306666666667e-05
scalar Network.client.eth[0].mac txPk:count 255
attr interpolationmode none
attr recordingmode count
attr source packetSentToLower
attr title "packets transmitted, count"
scalar Network.client.eth[0].mac txPk:sum(packetBytes) 66920
attr interpolationmode none
attr recordingmode sum(packetBytes)
attr source packetSentToLower
attr title "packets transmitted, sum(packetBytes)"
scalar Network.client.eth[0].mac packetReceivedFromUpper:count 255
attr interpolationmode none
attr recordingmode count
attr source packetReceivedFromUpper
attr title "packet bytes from higher layer, count"
scalar Network.client.eth[0].mac packetReceivedFromUpper:sum(packetBytes) 66030
attr interpolationmode none
attr recordingmode sum(packetBytes)
attr source packetReceivedFromUpper
attr title "packet bytes from higher layer, sum(packetBytes)"
scalar Network.client.eth[0].mac passedUpPk:count 240
attr interpolationmode none
attr recordingmode count
attr source packetSentToUpper
attr title "packets passed to higher layer, count"
scalar Network.client.eth[0].mac passedUpPk:sum(packetBytes) 20060
attr interpolationmode none
attr recordingmode sum(packetBytes)
attr source packetSentToUpper
attr title "packets passed to higher layer, sum(packetBytes)"
scalar Network.client.eth[0].mac packetDropIncorrectlyReceived:count 0
attr interpolationmode none
attr recordingmode count
attr source packetDropReasonIsIncorrectlyReceived(packetDropped)
attr title "packet drop: incorrectly received, count"
scalar Network.client.eth[0].mac packetDropIncorrectlyReceived:sum(packetBytes) 0
attr interpolationmode none
attr recordingmode sum(packetBytes)
attr source packetDropReasonIsIncorrectlyReceived(packetDropped)
attr title "packet drop: incorrectly received, sum(packetBytes)"
scalar Network.client.eth[0].mac packetDropInterfaceDown:count 0
attr interpolationmode none
attr recordingmode count
attr source packetDropReasonIsInterfaceDown(packetDropped)
attr title "packet drop: interface down, count"
scalar Network.client.eth[0].mac packetDropInterfaceDown:sum(packetBytes) 0
attr interpolationmode none
attr recordingmode sum(packetBytes)
attr source packetDropReasonIsInterfaceDown(packetDropped)
attr title "packet drop: interface down, sum(packetBytes)"
scalar Network.client.eth[0].mac packetDropNotAddressedToUs:count 0
attr interpolationmode none
attr recordingmode count
attr source packetDropReasonIsNotAddressedToUs(packetDropped)
attr title "packet drop: not addressed to us, count"
scalar Network.client.eth[0].mac packetDropNotAddressedToUs:sum(packetBytes) 0
attr interpolationmode none
attr recordingmode sum(packetBytes)
attr source packetDropReasonIsNotAddressedToUs(packetDropped)
attr title "packet drop: not addressed to us, sum(packetBytes)"
scalar Network.client.eth[0].mac rxPausePkUnits:count 0
attr interpolationmode none
attr recordingmode count
attr title "pause units received, count"
scalar Network.client.eth[0].mac rxPausePkUnits:sum 0
attr interpolationmode none
attr recordingmode sum
attr title "pause units received, sum"
scalar Network.client.eth[0].mac txPausePkUnits:count 0
attr interpolationmode none
attr recordingmode count
attr title "pause units sent, count"
scalar Network.client.eth[0].mac txPausePkUnits:sum 0
attr interpolationmode none
attr recordingmode sum
attr title "pause units sent, sum"
scalar Network.client.eth[0].mac rxPkOk:count 240
attr interpolationmode none
attr recordingmode count
attr source rxPkOk
attr title "packets received OK, count"
scalar Network.client.eth[0].mac rxPkOk:sum(packetBytes) 20060
attr interpolationmode none
attr recordingmode sum(packetBytes)
attr source rxPkOk
attr title "packets received OK, sum(packetBytes)"
par Network.client.eth[0] typename "\"inet.linklayer.ethernet.EthernetInterface\""
par Network.client.eth[0] displayStringTextFormat "\"%a (%i)\\n%m\""
par Network.client.eth[0] recordPcap false
par Network.client.eth[0] numPcapRecorders 0
par Network.client.eth[0] interfaceTableModule "\"Network.client.interfaceTable\""
par Network.client.eth[0] protocol "\"ethernetmac\""
par Network.client.eth[0] address "\"0A-AA-00-00-00-01\""
attr mutable ""
par Network.client.eth[0] duplexMode true
par Network.client.eth[0] csmacdSupport false
par Network.client.eth[0] bitrate 0bps
attr unit bps
par Network.client.eth[0] fcsMode "\"declared\""
attr enum declared,computed
scalar Network.client.eth[0] packetDropInterfaceDown:count 0
attr interpolationmode none
attr recordingmode count
attr source packetDropReasonIsInterfaceDown(packetDropped)
attr title "packet drops: interface down, count"
scalar Network.client.eth[0] packetDropInterfaceDown:sum(packetBytes) 0
attr interpolationmode none
attr recordingmode sum(packetBytes)
attr source packetDropReasonIsInterfaceDown(packetDropped)
attr title "packet drops: interface down, sum(packetBytes)"
scalar Network.client.eth[0] packetDropNoCarrier:count 0
attr interpolationmode none
attr recordingmode count
attr source packetDropReasonIsNoCarrier(packetDropped)
attr title "packet drops: no carrier, count"
scalar Network.client.eth[0] packetDropNoCarrier:sum(packetBytes) 0
attr interpolationmode none
attr recordingmode sum(packetBytes)
attr source packetDropReasonIsNoCarrier(packetDropped)
attr title "packet drops: no carrier, sum(packetBytes)"
par Network.client.ipv4.transportIn.channel typename "\"ned.IdealChannel\""
par Network.client.ipv4.up.out[0].channel typename "\"ned.IdealChannel\""
par Network.client.ipv4.lp.out[2].channel typename "\"ned.IdealChannel\""
par Network.client.ipv4.ifIn.channel typename "\"ned.IdealChannel\""
par Network.client.ipv4.configurator typename "\"inet.networklayer.configurator.ipv4.Ipv4NodeConfigurator\""
par Network.client.ipv4.configurator interfaceTableModule "\"Network.client.interfaceTable\""
par Network.client.ipv4.configurator routingTableModule "\"Network.client.ipv4.routingTable\""
par Network.client.ipv4.configurator networkConfiguratorModule "\"configurator\""
par Network.client.ipv4.configurator configureRoutingTable true
par Network.client.ipv4.routingTable typename "\"inet.networklayer.ipv4.Ipv4RoutingTable\""
par Network.client.ipv4.routingTable interfaceTableModule "\"Network.client.interfaceTable\""
par Network.client.ipv4.routingTable routerId "\"auto\""
par Network.client.ipv4.routingTable netmaskRoutes "\"*\""
par Network.client.ipv4.routingTable forwarding false
par Network.client.ipv4.routingTable multicastForwarding false
par Network.client.ipv4.routingTable useAdminDist false
par Network.client.ipv4.routingTable routingFile "\"\""
par Network.client.ipv4.natTable typename "\"inet.networklayer.ipv4.Ipv4NatTable\""
par Network.client.ipv4.natTable networkProtocolModule "\"^.ip\""
par Network.client.ipv4.natTable config "<config/> at content:1"
par Network.client.ipv4.up typename "\"inet.common.MessageDispatcher\""
par Network.client.ipv4.up displayStringTextFormat "\"processed %p pk (%l)\""
par Network.client.ipv4.up forwardServiceRegistration true
par Network.client.ipv4.up forwardProtocolRegistration true
par Network.client.ipv4.igmp typename "\"inet.networklayer.ipv4.Igmpv2\""
par Network.client.ipv4.igmp interfaceTableModule "\"Network.client.interfaceTable\""
par Network.client.ipv4.igmp routingTableModule "\"Network.client.ipv4.routingTable\""
par Network.client.ipv4.igmp crcMode "\"declared\""
attr enum declared,computed
par Network.client.ipv4.igmp enabled true
par Network.client.ipv4.igmp robustnessVariable 2
par Network.client.ipv4.igmp queryInterval 125s
attr unit s
par Network.client.ipv4.igmp queryResponseInterval 10s
attr unit s
par Network.client.ipv4.igmp groupMembershipInterval 260s
attr unit s
par Network.client.ipv4.igmp otherQuerierPresentInterval 255s
attr unit s
par Network.client.ipv4.igmp startupQueryInterval 31.25s
attr unit s
par Network.client.ipv4.igmp startupQueryCount 2
par Network.client.ipv4.igmp lastMemberQueryInterval 1s
attr unit s
par Network.client.ipv4.igmp lastMemberQueryCount 2
par Network.client.ipv4.igmp unsolicitedReportInterval 10s
attr unit s
par Network.client.ipv4.icmp typename "\"inet.networklayer.ipv4.Icmp\""
par Network.client.ipv4.icmp interfaceTableModule "\"Network.client.interfaceTable\""
par Network.client.ipv4.icmp routingTableModule "\"Network.client.ipv4.routingTable\""
par Network.client.ipv4.icmp crcMode "\"declared\""
attr enum declared,computed
attr mutable ""
par Network.client.ipv4.icmp quoteLength 8B
attr mutable ""
attr unit B
par Network.client.ipv4.mp typename "\"inet.common.MessageDispatcher\""
par Network.client.ipv4.mp displayStringTextFormat "\"processed %p pk (%l)\""
par Network.client.ipv4.mp forwardServiceRegistration true
par Network.client.ipv4.mp forwardProtocolRegistration true
par Network.client.ipv4.ip typename "\"inet.networklayer.ipv4.Ipv4\""
par Network.client.ipv4.ip interfaceTableModule "\"Network.client.interfaceTable\""
par Network.client.ipv4.ip routingTableModule "\"Network.client.ipv4.routingTable\""
par Network.client.ipv4.ip arpModule "\"Network.client.ipv4.arp\""
par Network.client.ipv4.ip icmpModule "\"Network.client.ipv4.icmp\""
par Network.client.ipv4.ip crcMode "\"declared\""
attr enum declared,computed
par Network.client.ipv4.ip timeToLive 32
par Network.client.ipv4.ip multicastTimeToLive 32
par Network.client.ipv4.ip fragmentTimeout 60s
attr unit s
par Network.client.ipv4.ip limitedBroadcast false
par Network.client.ipv4.ip directBroadcastInterfaces "\"\""
scalar Network.client.ipv4.ip packetDropAddressResolutionFailed:count 0
attr interpolationmode none
attr recordingmode count
attr source packetDropReasonIsAddressResolutionFailed(packetDropped)
attr title "packet drop: address resolution failed, count"
scalar Network.client.ipv4.ip packetDropAddressResolutionFailed:sum(packetBytes) 0
attr interpolationmode none
attr recordingmode sum(packetBytes)
attr source packetDropReasonIsAddressResolutionFailed(packetDropped)
attr title "packet drop: address resolution failed, sum(packetBytes)"
scalar Network.client.ipv4.ip packetDropHopLimitReached:count 0
attr interpolationmode none
attr recordingmode count
attr source packetDropReasonIsHopLimitReached(packetDropped)
attr title "packet drop: hop limit reached, count"
scalar Network.client.ipv4.ip packetDropHopLimitReached:sum(packetBytes) 0
attr interpolationmode none
attr recordingmode sum(packetBytes)
attr source packetDropReasonIsHopLimitReached(packetDropped)
attr title "packet drop: hop limit reached, sum(packetBytes)"
scalar Network.client.ipv4.ip packetDropForwardingDisabled:count 0
attr interpolationmode none
attr recordingmode count
attr source packetDropReasonIsForwardingDisabled(packetDropped)
attr title "packet drop: forwarding disabled, count"
scalar Network.client.ipv4.ip packetDropForwardingDisabled:sum(packetBytes) 0
attr interpolationmode none
attr recordingmode sum(packetBytes)
attr source packetDropReasonIsForwardingDisabled(packetDropped)
attr title "packet drop: forwarding disabled, sum(packetBytes)"
scalar Network.client.ipv4.ip packetDropNoInterfaceFound:count 0
attr interpolationmode none
attr recordingmode count
attr source packetDropReasonIsNoInterfaceFound(packetDropped)
attr title "packet drop: no interface found, count"
scalar Network.client.ipv4.ip packetDropNoInterfaceFound:sum(packetBytes) 0
attr interpolationmode none
attr recordingmode sum(packetBytes)
attr source packetDropReasonIsNoInterfaceFound(packetDropped)
attr title "packet drop: no interface found, sum(packetBytes)"
scalar Network.client.ipv4.ip packetDropNoRouteFound:count 0
attr interpolationmode none
attr recordingmode count
attr source packetDropReasonIsNoRouteFound(packetDropped)
attr title "packet drop: no route found, count"
scalar Network.client.ipv4.ip packetDropNoRouteFound:sum(packetBytes) 0
attr interpolationmode none
attr recordingmode sum(packetBytes)
attr source packetDropReasonIsNoRouteFound(packetDropped)
attr title "packet drop: no route found, sum(packetBytes)"
scalar Network.client.ipv4.ip packetDropUndefined:count 0
attr interpolationmode none
attr recordingmode count
attr source packetDropReasonIsUndefined(packetDropped)
attr title "packet drop: undefined, count"
scalar Network.client.ipv4.ip packetDropUndefined:sum(packetBytes) 0
attr interpolationmode none
attr recordingmode sum(packetBytes)
attr source packetDropReasonIsUndefined(packetDropped)
attr title "packet drop: undefined, sum(packetBytes)"
par Network.client.ipv4.arp typename "\"inet.networklayer.arp.ipv4.Arp\""
par Network.client.ipv4.arp interfaceTableModule "\"Network.client.interfaceTable\""
par Network.client.ipv4.arp routingTableModule "\"Network.client.ipv4.routingTable\""
par Network.client.ipv4.arp retryTimeout 1s
attr unit s
par Network.client.ipv4.arp retryCount 3
par Network.client.ipv4.arp cacheTimeout 120s
attr unit s
par Network.client.ipv4.arp proxyArpInterfaces "\"\""
scalar Network.client.ipv4.arp arpReplySent:count 0
attr recordingmode count
attr source arpReplySent
attr title "ARP replies sent, count"
scalar Network.client.ipv4.arp arpReplySent:sum(packetBytes) 0
attr recordingmode sum(packetBytes)
attr source arpReplySent
attr title "ARP replies sent, sum(packetBytes)"
scalar Network.client.ipv4.arp arpRequestSent:count 5
attr recordingmode count
attr source arpRequestSent
attr title "ARP request sent, count"
scalar Network.client.ipv4.arp arpRequestSent:sum(packetBytes) 140
attr recordingmode sum(packetBytes)
attr source arpRequestSent
attr title "ARP request sent, sum(packetBytes)"
scalar Network.client.ipv4.arp arpResolutionFailed:count 0
attr recordingmode count
attr title "ARP failed resolutions, count"
scalar Network.client.ipv4.arp arpResolutionCompleted:count 5
attr recordingmode count
attr title "ARP completed resolutions, count"
scalar Network.client.ipv4.arp arpResolutionInitiated:count 5
attr recordingmode count
attr title "ARP initiated resolutions, count"
par Network.client.ipv4.lp typename "\"inet.common.MessageDispatcher\""
par Network.client.ipv4.lp displayStringTextFormat "\"processed %p pk (%l)\""
par Network.client.ipv4.lp forwardServiceRegistration true
par Network.client.ipv4.lp forwardProtocolRegistration true
par Network.client.ipv4 typename "\"inet.networklayer.ipv4.Ipv4NetworkLayer\""
par Network.client.ipv4 forwarding false
par Network.client.ipv4 multicastForwarding false
par Network.client.ipv4 interfaceTableModule "\"Network.client.interfaceTable\""
par Network.client.ipv4 displayStringTextFormat "\"%i\""
par Network.client.nl typename "\"inet.common.MessageDispatcher\""
par Network.client.nl displayStringTextFormat "\"processed %p pk (%l)\""
par Network.client.nl forwardServiceRegistration true
par Network.client.nl forwardProtocolRegistration true
par Network.client.udp typename "\"inet.transportlayer.udp.Udp\""
par Network.client.udp interfaceTableModule "\"Network.client.interfaceTable\""
par Network.client.udp icmpModule "\"^.ipv4.icmp\""
par Network.client.udp icmpv6Module "\"^.ipv6.icmpv6\""
par Network.client.udp crcMode "\"declared\""
attr enum disabled,declared,computed
par Network.client.udp defaultMulticastLoop true
scalar Network.client.udp packetReceived:count 0
attr interpolationmode none
attr recordingmode count
attr source packetReceived
attr title "packets received, count"
scalar Network.client.udp packetReceived:sum(packetBytes) 0
attr interpolationmode none
attr recordingmode sum(packetBytes)
attr source packetReceived
attr title "packets received, sum(packetBytes)"
scalar Network.client.udp packetSent:count 0
attr interpolationmode none
attr recordingmode count
attr source packetSent
attr title "packets sent, count"
scalar Network.client.udp packetSent:sum(packetBytes) 0
attr interpolationmode none
attr recordingmode sum(packetBytes)
attr source packetSent
attr title "packets sent, sum(packetBytes)"
scalar Network.client.udp passedUpPk:count 0
attr interpolationmode none
attr recordingmode count
attr source packetSentToUpper
attr title "packets passed up, count"
scalar Network.client.udp droppedPkWrongPort:count 0
attr interpolationmode none
attr recordingmode count
attr source packetDropReasonIsNoPortFound(packetDropped)
attr title "packets dropped (wrong port), count"
scalar Network.client.udp droppedPkBadChecksum:count 0
attr interpolationmode none
attr recordingmode count
attr source packetDropReasonIsIncorrectlyReceived(packetDropped)
attr title "packets dropped (checksum error), count"
par Network.client.tcp.conn-88 typename "\"inet.transportlayer.tcp.TcpConnection\""
par Network.client.tcp.conn-96 typename "\"inet.transportlayer.tcp.TcpConnection\""
par Network.client.tcp.conn-100 typename "\"inet.transportlayer.tcp.TcpConnection\""
par Network.client.tcp.conn-106 typename "\"inet.transportlayer.tcp.TcpConnection\""
par Network.client.tcp.conn-112 typename "\"inet.transportlayer.tcp.TcpConnection\""
par Network.client.tcp.conn-116 typename "\"inet.transportlayer.tcp.TcpConnection\""
par Network.client.tcp.conn-122 typename "\"inet.transportlayer.tcp.TcpConnection\""
par Network.client.tcp.conn-128 typename "\"inet.transportlayer.tcp.TcpConnection\""
par Network.client.tcp.conn-134 typename "\"inet.transportlayer.tcp.TcpConnection\""
par Network.client.tcp.conn-138 typename "\"inet.transportlayer.tcp.TcpConnection\""
par Network.client.tcp typename "\"inet.transportlayer.tcp.Tcp\""
par Network.client.tcp crcMode "\"declared\""
attr enum declared,computed
par Network.client.tcp advertisedWindow 7504
par Network.client.tcp delayedAcksEnabled false
par Network.client.tcp nagleEnabled true
par Network.client.tcp limitedTransmitEnabled false
par Network.client.tcp increasedIWEnabled false
par Network.client.tcp sackSupport false
par Network.client.tcp windowScalingSupport false
par Network.client.tcp windowScalingFactor -1
par Network.client.tcp timestampSupport false
par Network.client.tcp mss 536
par Network.client.tcp msl 120s
attr unit s
par Network.client.tcp tcpAlgorithmClass "\"TcpReno\""
attr enum TcpVegas,TcpWestwood,TcpNewReno,TcpReno,TcpTahoe,TcpNoCongestionControl
par Network.client.tcp useDataNotification false
par Network.client.tcp dupthresh 3
par Network.client.tcp initialSsthresh 4294967295
par Network.client.tcp stopOperationExtraTime 0s
attr unit s
par Network.client.tcp stopOperationTimeout 2s
attr unit s
par Network.client.tcp ecnWillingness false
par Network.client.tcp dctcpGamma 0.0625
par Network.client.tn typename "\"inet.common.MessageDispatcher\""
par Network.client.tn displayStringTextFormat "\"processed %p pk (%l)\""
par Network.client.tn forwardServiceRegistration true
par Network.client.tn forwardProtocolRegistration true
par Network.client.app[0] typename "\"inet.applications.tcpapp.TcpBasicClientApp\""
par Network.client.app[0] localAddress "\"\""
par Network.client.app[0] localPort -1
par Network.client.app[0] connectAddress "\"server\""
par Network.client.app[0] connectPort 10021
par Network.client.app[0] startTime 1s
attr unit s
par Network.client.app[0] stopTime -1s
attr unit s
par Network.client.app[0] numRequestsPerSession 2
par Network.client.app[0] requestLength 1024B
attr unit B
par Network.client.app[0] replyLength 100B
attr unit B
par Network.client.app[0] thinkTime 1s
attr unit s
par Network.client.app[0] idleInterval 20s
attr unit s
par Network.client.app[0] reconnectInterval 30s
attr unit s
par Network.client.app[0] timeToLive -1
par Network.client.app[0] dscp -1
par Network.client.app[0] tos -1
par Network.client.app[0] stopOperationExtraTime -1s
attr unit s
par Network.client.app[0] stopOperationTimeout 2s
attr unit s
scalar Network.client.app[0] numActiveSessions:max 1
attr autoWarmupFilter false
attr interpolationmode sample-hold
attr recordingmode max
attr source warmup(sum(connect))
attr title "number of active sessions, max"
scalar Network.client.app[0] numActiveSessions:timeavg 0.12500286853333
attr autoWarmupFilter false
attr interpolationmode sample-hold
attr recordingmode timeavg
attr source warmup(sum(connect))
attr title "number of active sessions, timeavg"
scalar Network.client.app[0] numSessions:last 25
attr recordingmode last
attr source sum(connect+1)/2
attr title "total number of sessions, last"
scalar Network.client.app[0] packetReceived:count 50
attr interpolationmode none
attr recordingmode count
attr source packetReceived
attr title "packets received, count"
scalar Network.client.app[0] packetReceived:sum(packetBytes) 5000
attr interpolationmode none
attr recordingmode sum(packetBytes)
attr source packetReceived
attr title "packets received, sum(packetBytes)"
statistic Network.client.app[0] endToEndDelay:histogram
field count 50
field mean 1.000004656
field stddev 0
field min 1.000004656
field max 1.000004656
field sum 50.0002328
field sqrsum 50.000465601084
attr interpolationmode none
attr recordingmode histogram
attr source dataAge(packetReceived)
attr title "end-to-end delay"
attr unit s
bin	-inf	0
bin	0.5	0
bin	0.52	0
bin	0.54	0
bin	0.56	0
bin	0.58	0
bin	0.6	0
bin	0.62	0
bin	0.64	0
bin	0.66	0
bin	0.68	0
bin	0.7	0
bin	0.72	0
bin	0.74	0
bin	0.76	0
bin	0.78	0
bin	0.8	0
bin	0.82	0
bin	0.84	0
bin	0.86	0
bin	0.88	0
bin	0.9	0
bin	0.92	0
bin	0.94	0
bin	0.96	0
bin	0.98	0
bin	1	50
bin	1.02	0
bin	1.04	0
bin	1.06	0
bin	1.08	0
bin	1.1	0
bin	1.12	0
bin	1.14	0
bin	1.16	0
bin	1.18	0
bin	1.2	0
bin	1.22	0
bin	1.24	0
bin	1.26	0
bin	1.28	0
bin	1.3	0
bin	1.32	0
bin	1.34	0
bin	1.36	0
bin	1.38	0
bin	1.4	0
bin	1.42	0
bin	1.44	0
bin	1.46	0
bin	1.48	0
bin	1.5	0
bin	1.52	0
statistic Network.client.app[0] endToEndDelay:weightedHistogram
field count 50
field mean 1.000004656
field stddev 0
field min 1.000004656
field max 1.000004656
field weights 40000
field weightedSum 40000.18624
field sqrSumWeights 32000000
field weightedSqrSum 40000.372480867
attr interpolationmode none
attr recordingmode weightedHistogram
attr source dataAge(packetReceived)
attr title "end-to-end delay, weightedHistogram"
attr unit s
bin	-inf	0
bin	0.5	0
bin	0.52	0
bin	0.54	0
bin	0.56	0
bin	0.58	0
bin	0.6	0
bin	0.62	0
bin	0.64	0
bin	0.66	0
bin	0.68	0
bin	0.7	0
bin	0.72	0
bin	0.74	0
bin	0.76	0
bin	0.78	0
bin	0.8	0
bin	0.82	0
bin	0.84	0
bin	0.86	0
bin	0.88	0
bin	0.9	0
bin	0.92	0
bin	0.94	0
bin	0.96	0
bin	0.98	0
bin	1	40000
bin	1.02	0
bin	1.04	0
bin	1.06	0
bin	1.08	0
bin	1.1	0
bin	1.12	0
bin	1.14	0
bin	1.16	0
bin	1.18	0
bin	1.2	0
bin	1.22	0
bin	1.24	0
bin	1.26	0
bin	1.28	0
bin	1.3	0
bin	1.32	0
bin	1.34	0
bin	1.36	0
bin	1.38	0
bin	1.4	0
bin	1.42	0
bin	1.44	0
bin	1.46	0
bin	1.48	0
bin	1.5	0
bin	1.52	0
scalar Network.client.app[0] packetSent:count 50
attr interpolationmode none
attr recordingmode count
attr source packetSent
attr title "packets sent, count"
scalar Network.client.app[0] packetSent:sum(packetBytes) 51200
attr interpolationmode none
attr recordingmode sum(packetBytes)
attr source packetSent
attr title "packets sent, sum(packetBytes)"
par Network.client.at typename "\"inet.common.MessageDispatcher\""
par Network.client.at displayStringTextFormat "\"processed %p pk (%l)\""
par Network.client.at forwardServiceRegistration true
par Network.client.at forwardProtocolRegistration true
par Network.client typename "\"inet.node.inet.StandardHost\""
par Network.client hasStatus false
par Network.client osgModel "\"\""
par Network.client osgModelColor "\"\""
par Network.client canvasImage "\"\""
par Network.client canvasImageColor "\"\""
par Network.client recordPcap false
par Network.client numPcapRecorders 0
par Network.client numLoInterfaces 1
par Network.client numWlanInterfaces 0
par Network.client numEthInterfaces 0
par Network.client numPppInterfaces 0
par Network.client numTunInterfaces 0
par Network.client numVirtInterfaces 0
par Network.client fcsMode "\"declared\""
attr enum declared,computed
par Network.client hasIpv4 true
par Network.client hasIpv6 false
par Network.client hasGn false
par Network.client forwarding false
par Network.client multicastForwarding false
par Network.client hasUdp true
par Network.client hasTcp true
par Network.client hasSctp false
par Network.client numApps 1
par Network.server.ethg$i[0].channel typename "\"ned.IdealChannel\""
par Network.server.eth[0].phys$o.channel typename "\"ned.IdealChannel\""
par Network.server.interfaceTable typename "\"inet.networklayer.common.InterfaceTable\""
par Network.server.interfaceTable displayAddresses false
par Network.server.cb typename "\"inet.common.MessageDispatcher\""
par Network.server.cb displayStringTextFormat "\"processed %p pk (%l)\""
par Network.server.cb forwardServiceRegistration true
par Network.server.cb forwardProtocolRegistration true
par Network.server.bl typename "\"inet.common.MessageDispatcher\""
par Network.server.bl displayStringTextFormat "\"processed %p pk (%l)\""
par Network.server.bl forwardServiceRegistration true
par Network.server.bl forwardProtocolRegistration true
par Network.server.ethernet typename "\"inet.linklayer.ethernet.basic.EthernetEncapsulation\""
par Network.server.ethernet registerProtocol true
par Network.server.ethernet interfaceTableModule "\"Network.server.interfaceTable\""
par Network.server.ethernet fcsMode "\"declared\""
attr enum declared,computed
par Network.server.ethernet stopOperationExtraTime -1s
attr unit s
par Network.server.ethernet stopOperationTimeout 2s
attr unit s
scalar Network.server.ethernet decapPk:count 265
attr interpolationmode none
attr recordingmode count
attr source decapPk
attr title "packets decapsulated, count"
scalar Network.server.ethernet decapPk:sum(packetBytes) 62790
attr interpolationmode none
attr recordingmode sum(packetBytes)
attr source decapPk
attr title "packets decapsulated, sum(packetBytes)"
scalar Network.server.ethernet encapPk:count 230
attr interpolationmode none
attr recordingmode count
attr source encapPk
attr title "packets encapsulated, count"
scalar Network.server.ethernet encapPk:sum(packetBytes) 14240
attr interpolationmode none
attr recordingmode sum(packetBytes)
attr source encapPk
attr title "packets encapsulated, sum(packetBytes)"
scalar Network.server.ethernet pauseSent:count 0
attr recordingmode count
attr title "pause sent, count"
scalar Network.server.ethernet pauseSent:sum 0
attr recordingmode sum
attr title "pause sent, sum"
par Network.server.li typename "\"inet.common.MessageDispatcher\""
par Network.server.li displayStringTextFormat "\"processed %p pk (%l)\""
par Network.server.li forwardServiceRegistration true
par Network.server.li forwardProtocolRegistration true
par Network.server.lo[0].upperLayerIn.channel typename "\"ned.IdealChannel\""
par Network.server.lo[0].lo.upperLayerOut.channel typename "\"ned.IdealChannel\""
par Network.server.lo[0].lo typename "\"inet.linklayer.loopback.Loopback\""
par Network.server.lo[0].lo interfaceTableModule "\"Network.server.interfaceTable\""
par Network.server.lo[0].lo mtu 4470B
attr unit B
scalar Network.server.lo[0].lo rcvdPkFromHl:count 0
attr interpolationmode none
attr recordingmode count
attr source packetReceivedFromUpper
attr title "packets received from higher layer, count"
scalar Network.server.lo[0].lo rcvdPkFromHl:sum(packetBytes) 0
attr interpolationmode none
attr recordingmode sum(packetBytes)
attr source packetReceivedFromUpper
attr title "packets received from higher layer, sum(packetBytes)"
scalar Network.server.lo[0].lo passedUpPk:count 0
attr interpolationmode none
attr recordingmode count
attr source packetSentToUpper
attr title "packets passed to higher layer, count"
scalar Network.server.lo[0].lo passedUpPk:sum(packetBytes) 0
attr interpolationmode none
attr recordingmode sum(packetBytes)
attr source packetSentToUpper
attr title "packets passed to higher layer, sum(packetBytes)"
par Network.server.lo[0] typename "\"inet.linklayer.loopback.LoopbackInterface\""
par Network.server.lo[0] displayStringTextFormat "\"%a (%i)\\n%m\""
par Network.server.lo[0] recordPcap false
par Network.server.lo[0] numPcapRecorders 0
par Network.server.lo[0] interfaceTableModule "\"Network.server.interfaceTable\""
scalar Network.server.lo[0] packetDropInterfaceDown:count 0
attr interpolationmode none
attr recordingmode count
attr source packetDropReasonIsInterfaceDown(packetDropped)
attr title "packet drops: interface down, count"
scalar Network.server.lo[0] packetDropInterfaceDown:sum(packetBytes) 0
attr interpolationmode none
attr recordingmode sum(packetBytes)
attr source packetDropReasonIsInterfaceDown(packetDropped)
attr title "packet drops: interface down, sum(packetBytes)"
scalar Network.server.lo[0] packetDropNoCarrier:count 0
attr interpolationmode none
attr recordingmode count
attr source packetDropReasonIsNoCarrier(packetDropped)
attr title "packet drops: no carrier, count"
scalar Network.server.lo[0] packetDropNoCarrier:sum(packetBytes) 0
attr interpolationmode none
attr recordingmode sum(packetBytes)
attr source packetDropReasonIsNoCarrier(packetDropped)
attr title "packet drops: no carrier, sum(packetBytes)"
par Network.server.eth[0].mac.phys$o.channel typename "\"ned.IdealChannel\""
par Network.server.eth[0].phys$i.channel typename "\"ned.IdealChannel\""
par Network.server.eth[0].upperLayerIn.channel typename "\"ned.IdealChannel\""
par Network.server.eth[0].mac.upperLayerOut.channel typename "\"ned.IdealChannel\""
par Network.server.eth[0].queue typename "\"inet.linklayer.ethernet.common.EthernetQueue\""
par Network.server.eth[0].queue displayStringTextFormat "\"contains %p pk (%l) pushed %u\\npulled %o removed %r dropped %d\""
par Network.server.eth[0].queue packetCapacity 1000
par Network.server.eth[0].queue dataCapacity -1b
attr unit b
par Network.server.eth[0].queue dropperClass "\"inet::queueing::PacketAtCollectionEndDropper\""
par Network.server.eth[0].queue comparatorClass "\"inet::EthernetFrameTypeComparator\""
par Network.server.eth[0].queue bufferModule "\"\""
scalar Network.server.eth[0].queue queueLength:last 0
attr autoWarmupFilter false
attr interpolationmode sample-hold
attr recordingmode last
attr source "warmup(atomic(constant0(packetPushEnded) + count(packetPushStarted) - count(packetPulled) - count(packetRemoved) - count(packetDropped)))"
attr title "queue length, last"
attr unit pk
scalar Network.server.eth[0].queue queueLength:max 0
attr autoWarmupFilter false
attr interpolationmode sample-hold
attr recordingmode max
attr source "warmup(atomic(constant0(packetPushEnded) + count(packetPushStarted) - count(packetPulled) - count(packetRemoved) - count(packetDropped)))"
attr title "queue length, max"
attr unit pk
scalar Network.server.eth[0].queue queueLength:timeavg 0
attr autoWarmupFilter false
attr interpolationmode sample-hold
attr recordingmode timeavg
attr source "warmup(atomic(constant0(packetPushEnded) + count(packetPushStarted) - count(packetPulled) - count(packetRemoved) - count(packetDropped)))"
attr title "queue length, timeavg"
attr unit pk
scalar Network.server.eth[0].queue queueBitLength:last 0
attr autoWarmupFilter false
attr interpolationmode sample-hold
attr recordingmode last
attr source "warmup(atomic(constant0(packetPushEnded) + sum(packetLength(packetPushStarted)) - sum(packetLength(packetPulled)) - sum(packetLength(packetRemoved)) - sum(packetLength(packetDropped))))"
attr title "queue bit length, last"
attr unit b
scalar Network.server.eth[0].queue queueBitLength:max 0
attr autoWarmupFilter false
attr interpolationmode sample-hold
attr recordingmode max
attr source "warmup(atomic(constant0(packetPushEnded) + sum(packetLength(packetPushStarted)) - sum(packetLength(packetPulled)) - sum(packetLength(packetRemoved)) - sum(packetLength(packetDropped))))"
attr title "queue bit length, max"
attr unit b
scalar Network.server.eth[0].queue queueBitLength:timeavg 0
attr autoWarmupFilter false
attr interpolationmode sample-hold
attr recordingmode timeavg
attr source "warmup(atomic(constant0(packetPushEnded) + sum(packetLength(packetPushStarted)) - sum(packetLength(packetPulled)) - sum(packetLength(packetRemoved)) - sum(packetLength(packetDropped))))"
attr title "queue bit length, timeavg"
attr unit b
statistic Network.server.eth[0].queue queueingTime:histogram
field count 230
field mean 0
field stddev 0
field min 0
field max 0
field sum 0
field sqrsum 0
attr interpolationmode none
attr recordingmode histogram
attr source queueingTime(packetPulled)
attr title "queueing times"
attr unit s
bin	-inf	0
bin	-0.5	0
bin	-0.48	0
bin	-0.46	0
bin	-0.44	0
bin	-0.42	0
bin	-0.4	0
bin	-0.38	0
bin	-0.36	0
bin	-0.34	0
bin	-0.32	0
bin	-0.3	0
bin	-0.28	0
bin	-0.26	0
bin	-0.24	0
bin	-0.22	0
bin	-0.2	0
bin	-0.18	0
bin	-0.16	0
bin	-0.14	0
bin	-0.12	0
bin	-0.1	0
bin	-0.08	0
bin	-0.06	0
bin	-0.04	0
bin	-0.02	0
bin	0	230
bin	0.02	0
bin	0.04	0
bin	0.06	0
bin	0.08	0
bin	0.1	0
bin	0.12	0
bin	0.14	0
bin	0.16	0
bin	0.18	0
bin	0.2	0
bin	0.22	0
bin	0.24	0
bin	0.26	0
bin	0.28	0
bin	0.3	0
bin	0.32	0
bin	0.34	0
bin	0.36	0
bin	0.38	0
bin	0.4	0
bin	0.42	0
bin	0.44	0
bin	0.46	0
bin	0.48	0
bin	0.5	0
scalar Network.server.eth[0].queue outgoingPackets:count 230
attr recordingmode count
attr source packetPulled
attr title "outgoing packets, count"
attr unit pk
scalar Network.server.eth[0].queue outgoingPacketLengths:sum 147040
attr interpolationmode none
attr recordingmode sum
attr source packetLength(packetPulled)
attr title "outgoing packet lengths, sum"
attr unit b
statistic Network.server.eth[0].queue outgoingPacketLengths:histogram
field count 230
field mean 639.30434782609
field stddev 330.43182475468
field min 368
field max 1264
field sum 147040
field sqrsum 119006720
attr interpolationmode none
attr recordingmode histogram
attr source packetLength(packetPulled)
attr title "outgoing packet lengths"
attr unit b
bin	-inf	0
bin	140	0
bin	160	0
bin	180	0
bin	200	0
bin	220	0
bin	240	0
bin	260	0
bin	280	0
bin	300	0
bin	320	0
bin	340	0
bin	360	5
bin	380	0
bin	400	0
bin	420	0
bin	440	0
bin	460	150
bin	480	25
bin	500	0
bin	520	0
bin	540	0
bin	560	0
bin	580	0
bin	600	0
bin	620	0
bin	640	0
bin	660	0
bin	680	0
bin	700	0
bin	720	0
bin	740	0
bin	760	0
bin	780	0
bin	800	0
bin	820	0
bin	840	0
bin	860	0
bin	880	0
bin	900	0
bin	920	0
bin	940	0
bin	960	0
bin	980	0
bin	1000	0
bin	1020	0
bin	1040	0
bin	1060	0
bin	1080	0
bin	1100	0
bin	1120	0
bin	1140	0
bin	1160	0
bin	1180	0
bin	1200	0
bin	1220	0
bin	1240	0
bin	1260	50
bin	1280	0
bin	1300	0
bin	1320	0
bin	1340	0
bin	1360	0
bin	1380	0
bin	1400	0
bin	1420	0
bin	1440	0
bin	1460	0
bin	1480	0
bin	1500	0
statistic Network.server.eth[0].queue flowQueueingTime:histogram
field count 0
field mean nan
field stddev nan
field min nan
field max nan
field sum 0
field sqrsum 0
attr interpolationmode none
attr recordingmode histogram
attr source queueingTime(demuxFlow(packetPulled))
attr title "flow queueing times"
attr unit s
bin	-inf	0
bin	0	0
bin	1	0
scalar Network.server.eth[0].queue incomingPackets:count 230
attr recordingmode count
attr source packetPushStarted
attr title "incoming packets, count"
attr unit pk
scalar Network.server.eth[0].queue incomingPacketLengths:sum 147040
attr interpolationmode none
attr recordingmode sum
attr source packetLength(packetPushStarted)
attr title "incoming packet lengths, sum"
attr unit b
statistic Network.server.eth[0].queue incomingPacketLengths:histogram
field count 230
field mean 639.30434782609
field stddev 330.43182475468
field min 368
field max 1264
field sum 147040
field sqrsum 119006720
attr interpolationmode none
attr recordingmode histogram
attr source packetLength(packetPushStarted)
attr title "incoming packet lengths"
attr unit b
bin	-inf	0
bin	140	0
bin	160	0
bin	180	0
bin	200	0
bin	220	0
bin	240	0
bin	260	0
bin	280	0
bin	300	0
bin	320	0
bin	340	0
bin	360	5
bin	380	0
bin	400	0
bin	420	0
bin	440	0
bin	460	150
bin	480	25
bin	500	0
bin	520	0
bin	540	0
bin	560	0
bin	580	0
bin	600	0
bin	620	0
bin	640	0
bin	660	0
bin	680	0
bin	700	0
bin	720	0
bin	740	0
bin	760	0
bin	780	0
bin	800	0
bin	820	0
bin	840	0
bin	860	0
bin	880	0
bin	900	0
bin	920	0
bin	940	0
bin	960	0
bin	980	0
bin	1000	0
bin	1020	0
bin	1040	0
bin	1060	0
bin	1080	0
bin	1100	0
bin	1120	0
bin	1140	0
bin	1160	0
bin	1180	0
bin	1200	0
bin	1220	0
bin	1240	0
bin	1260	50
bin	1280	0
bin	1300	0
bin	1320	0
bin	1340	0
bin	1360	0
bin	1380	0
bin	1400	0
bin	1420	0
bin	1440	0
bin	1460	0
bin	1480	0
bin	1500	0
scalar Network.server.eth[0].queue droppedPacketsQueueOverflow:count 0
attr interpolationmode none
attr recordingmode count
attr source packetDropReasonIsQueueOverflow(packetDropped)
attr title "dropped packets: queue overflow, count"
attr unit pk
scalar Network.server.eth[0].queue droppedPacketLengthsQueueOverflow:sum 0
attr interpolationmode none
attr recordingmode sum
attr source packetLength(packetDropReasonIsQueueOverflow(packetDropped))
attr title "dropped packet lengths: queue overflow, sum"
attr unit b
par Network.server.eth[0].mac typename "\"inet.linklayer.ethernet.basic.EthernetMac\""
par Network.server.eth[0].mac interfaceTableModule "\"Network.server.interfaceTable\""
par Network.server.eth[0].mac displayStringTextFormat "\"rate: %b\\nsent: %s, rcvd: %r\\nqueue: %q, drop: %d\""
par Network.server.eth[0].mac sendRawBytes false
par Network.server.eth[0].mac promiscuous false
par Network.server.eth[0].mac duplexMode true
par Network.server.eth[0].mac mtu 1500B
attr unit B
par Network.server.eth[0].mac fcsMode "\"declared\""
attr enum declared,computed
par Network.server.eth[0].mac stopOperationExtraTime -1s
attr unit s
par Network.server.eth[0].mac stopOperationTimeout 2s
attr unit s
scalar Network.server.eth[0].mac "simulated time" 600
scalar Network.server.eth[0].mac full-duplex 1
scalar Network.server.eth[0].mac "frames/sec sent" 0.38333333333333
scalar Network.server.eth[0].mac "frames/sec rcvd" 0.44166666666667
scalar Network.server.eth[0].mac "bits/sec sent" 258.93333333333
scalar Network.server.eth[0].mac "bits/sec rcvd" 900.8
scalar Network.server.eth[0].mac "rx channel idle (%)" 99.999907093333
scalar Network.server.eth[0].mac "rx channel utilization (%)" 9.2906666666667e-05
scalar Network.server.eth[0].mac txPk:count 230
attr interpolationmode none
attr recordingmode count
attr source packetSentToLower
attr title "packets transmitted, count"
scalar Network.server.eth[0].mac txPk:sum(packetBytes) 19420
attr interpolationmode none
attr recordingmode sum(packetBytes)
attr source packetSentToLower
attr title "packets transmitted, sum(packetBytes)"
scalar Network.server.eth[0].mac packetReceivedFromUpper:count 230
attr interpolationmode none
attr recordingmode count
attr source packetReceivedFromUpper
attr title "packet bytes from higher layer, count"
scalar Network.server.eth[0].mac packetReceivedFromUpper:sum(packetBytes) 18380
attr interpolationmode none
attr recordingmode sum(packetBytes)
attr source packetReceivedFromUpper
attr title "packet bytes from higher layer, sum(packetBytes)"
scalar Network.server.eth[0].mac passedUpPk:count 265
attr interpolationmode none
attr recordingmode count
attr source packetSentToUpper
attr title "packets passed to higher layer, count"
scalar Network.server.eth[0].mac passedUpPk:sum(packetBytes) 67560
attr interpolationmode none
attr recordingmode sum(packetBytes)
attr source packetSentToUpper
attr title "packets passed to higher layer, sum(packetBytes)"
scalar Network.server.eth[0].mac packetDropIncorrectlyReceived:count 0
attr interpolationmode none
attr recordingmode count
attr source packetDropReasonIsIncorrectlyReceived(packetDropped)
attr title "packet drop: incorrectly received, count"
scalar Network.server.eth[0].mac packetDropIncorrectlyReceived:sum(packetBytes) 0
attr interpolationmode none
attr recordingmode sum(packetBytes)
attr source packetDropReasonIsIncorrectlyReceived(packetDropped)
attr title "packet drop: incorrectly received, sum(packetBytes)"
scalar Network.server.eth[0].mac packetDropInterfaceDown:count 0
attr interpolationmode none
attr recordingmode count
attr source packetDropReasonIsInterfaceDown(packetDropped)
attr title "packet drop: interface down, count"
scalar Network.server.eth[0].mac packetDropInterfaceDown:sum(packetBytes) 0
attr interpolationmode none
attr recordingmode sum(packetBytes)
attr source packetDropReasonIsInterfaceDown(packetDropped)
attr title "packet drop: interface down, sum(packetBytes)"
scalar Network.server.eth[0].mac packetDropNotAddressedToUs:count 0
attr interpolationmode none
attr recordingmode count
attr source packetDropReasonIsNotAddressedToUs(packetDropped)
attr title "packet drop: not addressed to us, count"
scalar Network.server.eth[0].mac packetDropNotAddressedToUs:sum(packetBytes) 0
attr interpolationmode none
attr recordingmode sum(packetBytes)
attr source packetDropReasonIsNotAddressedToUs(packetDropped)
attr title "packet drop: not addressed to us, sum(packetBytes)"
scalar Network.server.eth[0].mac rxPausePkUnits:count 0
attr interpolationmode none
attr recordingmode count
attr title "pause units received, count"
scalar Network.server.eth[0].mac rxPausePkUnits:sum 0
attr interpolationmode none
attr recordingmode sum
attr title "pause units received, sum"
scalar Network.server.eth[0].mac txPausePkUnits:count 0
attr interpolationmode none
attr recordingmode count
attr title "pause units sent, count"
scalar Network.server.eth[0].mac txPausePkUnits:sum 0
attr interpolationmode none
attr recordingmode sum
attr title "pause units sent, sum"
scalar Network.server.eth[0].mac rxPkOk:count 265
attr interpolationmode none
attr recordingmode count
attr source rxPkOk
attr title "packets received OK, count"
scalar Network.server.eth[0].mac rxPkOk:sum(packetBytes) 67560
attr interpolationmode none
attr recordingmode sum(packetBytes)
attr source rxPkOk
attr title "packets received OK, sum(packetBytes)"
par Network.server.eth[0] typename "\"inet.linklayer.ethernet.EthernetInterface\""
par Network.server.eth[0] displayStringTextFormat "\"%a (%i)\\n%m\""
par Network.server.eth[0] recordPcap false
par Network.server.eth[0] numPcapRecorders 0
par Network.server.eth[0] interfaceTableModule "\"Network.server.interfaceTable\""
par Network.server.eth[0] protocol "\"ethernetmac\""
par Network.server.eth[0] address "\"0A-AA-00-00-00-02\""
attr mutable ""
par Network.server.eth[0] duplexMode true
par Network.server.eth[0] csmacdSupport false
par Network.server.eth[0] bitrate 0bps
attr unit bps
par Network.server.eth[0] fcsMode "\"declared\""
attr enum declared,computed
scalar Network.server.eth[0] packetDropInterfaceDown:count 0
attr interpolationmode none
attr recordingmode count
attr source packetDropReasonIsInterfaceDown(packetDropped)
attr title "packet drops: interface down, count"
scalar Network.server.eth[0] packetDropInterfaceDown:sum(packetBytes) 0
attr interpolationmode none
attr recordingmode sum(packetBytes)
attr source packetDropReasonIsInterfaceDown(packetDropped)
attr title "packet drops: interface down, sum(packetBytes)"
scalar Network.server.eth[0] packetDropNoCarrier:count 0
attr interpolationmode none
attr recordingmode count
attr source packetDropReasonIsNoCarrier(packetDropped)
attr title "packet drops: no carrier, count"
scalar Network.server.eth[0] packetDropNoCarrier:sum(packetBytes) 0
attr interpolationmode none
attr recordingmode sum(packetBytes)
attr source packetDropReasonIsNoCarrier(packetDropped)
attr title "packet drops: no carrier, sum(packetBytes)"
par Network.server.ipv4.transportIn.channel typename "\"ned.IdealChannel\""
par Network.server.ipv4.up.out[0].channel typename "\"ned.IdealChannel\""
par Network.server.ipv4.lp.out[2].channel typename "\"ned.IdealChannel\""
par Network.server.ipv4.ifIn.channel typename "\"ned.IdealChannel\""
par Network.server.ipv4.configurator typename "\"inet.networklayer.configurator.ipv4.Ipv4NodeConfigurator\""
par Network.server.ipv4.configurator interfaceTableModule "\"Network.server.interfaceTable\""
par Network.server.ipv4.configurator routingTableModule "\"Network.server.ipv4.routingTable\""
par Network.server.ipv4.configurator networkConfiguratorModule "\"configurator\""
par Network.server.ipv4.configurator configureRoutingTable true
par Network.server.ipv4.routingTable typename "\"inet.networklayer.ipv4.Ipv4RoutingTable\""
par Network.server.ipv4.routingTable interfaceTableModule "\"Network.server.interfaceTable\""
par Network.server.ipv4.routingTable routerId "\"auto\""
par Network.server.ipv4.routingTable netmaskRoutes "\"*\""
par Network.server.ipv4.routingTable forwarding false
par Network.server.ipv4.routingTable multicastForwarding false
par Network.server.ipv4.routingTable useAdminDist false
par Network.server.ipv4.routingTable routingFile "\"\""
par Network.server.ipv4.natTable typename "\"inet.networklayer.ipv4.Ipv4NatTable\""
par Network.server.ipv4.natTable networkProtocolModule "\"^.ip\""
par Network.server.ipv4.natTable config "<config/> at content:1"
par Network.server.ipv4.up typename "\"inet.common.MessageDispatcher\""
par Network.server.ipv4.up displayStringTextFormat "\"processed %p pk (%l)\""
par Network.server.ipv4.up forwardServiceRegistration true
par Network.server.ipv4.up forwardProtocolRegistration true
par Network.server.ipv4.igmp typename "\"inet.networklayer.ipv4.Igmpv2\""
par Network.server.ipv4.igmp interfaceTableModule "\"Network.server.interfaceTable\""
par Network.server.ipv4.igmp routingTableModule "\"Network.server.ipv4.routingTable\""
par Network.server.ipv4.igmp crcMode "\"declared\""
attr enum declared,computed
par Network.server.ipv4.igmp enabled true
par Network.server.ipv4.igmp robustnessVariable 2
par Network.server.ipv4.igmp queryInterval 125s
attr unit s
par Network.server.ipv4.igmp queryResponseInterval 10s
attr unit s
par Network.server.ipv4.igmp groupMembershipInterval 260s
attr unit s
par Network.server.ipv4.igmp otherQuerierPresentInterval 255s
attr unit s
par Network.server.ipv4.igmp startupQueryInterval 31.25s
attr unit s
par Network.server.ipv4.igmp startupQueryCount 2
par Network.server.ipv4.igmp lastMemberQueryInterval 1s
attr unit s
par Network.server.ipv4.igmp lastMemberQueryCount 2
par Network.server.ipv4.igmp unsolicitedReportInterval 10s
attr unit s
par Network.server.ipv4.icmp typename "\"inet.networklayer.ipv4.Icmp\""
par Network.server.ipv4.icmp interfaceTableModule "\"Network.server.interfaceTable\""
par Network.server.ipv4.icmp routingTableModule "\"Network.server.ipv4.routingTable\""
par Network.server.ipv4.icmp crcMode "\"declared\""
attr enum declared,computed
attr mutable ""
par Network.server.ipv4.icmp quoteLength 8B
attr mutable ""
attr unit B
par Network.server.ipv4.mp typename "\"inet.common.MessageDispatcher\""
par Network.server.ipv4.mp displayStringTextFormat "\"processed %p pk (%l)\""
par Network.server.ipv4.mp forwardServiceRegistration true
par Network.server.ipv4.mp forwardProtocolRegistration true
par Network.server.ipv4.ip typename "\"inet.networklayer.ipv4.Ipv4\""
par Network.server.ipv4.ip interfaceTableModule "\"Network.server.interfaceTable\""
par Network.server.ipv4.ip routingTableModule "\"Network.server.ipv4.routingTable\""
par Network.server.ipv4.ip arpModule "\"Network.server.ipv4.arp\""
par Network.server.ipv4.ip icmpModule "\"Network.server.ipv4.icmp\""
par Network.server.ipv4.ip crcMode "\"declared\""
attr enum declared,computed
par Network.server.ipv4.ip timeToLive 32
par Network.server.ipv4.ip multicastTimeToLive 32
par Network.server.ipv4.ip fragmentTimeout 60s
attr unit s
par Network.server.ipv4.ip limitedBroadcast false
par Network.server.ipv4.ip directBroadcastInterfaces "\"\""
scalar Network.server.ipv4.ip packetDropAddressResolutionFailed:count 0
attr interpolationmode none
attr recordingmode count
attr source packetDropReasonIsAddressResolutionFailed(packetDropped)
attr title "packet drop: address resolution failed, count"
scalar Network.server.ipv4.ip packetDropAddressResolutionFailed:sum(packetBytes) 0
attr interpolationmode none
attr recordingmode sum(packetBytes)
attr source packetDropReasonIsAddressResolutionFailed(packetDropped)
attr title "packet drop: address resolution failed, sum(packetBytes)"
scalar Network.server.ipv4.ip packetDropHopLimitReached:count 0
attr interpolationmode none
attr recordingmode count
attr source packetDropReasonIsHopLimitReached(packetDropped)
attr title "packet drop: hop limit reached, count"
scalar Network.server.ipv4.ip packetDropHopLimitReached:sum(packetBytes) 0
attr interpolationmode none
attr recordingmode sum(packetBytes)
attr source packetDropReasonIsHopLimitReached(packetDropped)
attr title "packet drop: hop limit reached, sum(packetBytes)"
scalar Network.server.ipv4.ip packetDropForwardingDisabled:count 0
attr interpolationmode none
attr recordingmode count
attr source packetDropReasonIsForwardingDisabled(packetDropped)
attr title "packet drop: forwarding disabled, count"
scalar Network.server.ipv4.ip packetDropForwardingDisabled:sum(packetBytes) 0
attr interpolationmode none
attr recordingmode sum(packetBytes)
attr source packetDropReasonIsForwardingDisabled(packetDropped)
attr title "packet drop: forwarding disabled, sum(packetBytes)"
scalar Network.server.ipv4.ip packetDropNoInterfaceFound:count 0
attr interpolationmode none
attr recordingmode count
attr source packetDropReasonIsNoInterfaceFound(packetDropped)
attr title "packet drop: no interface found, count"
scalar Network.server.ipv4.ip packetDropNoInterfaceFound:sum(packetBytes) 0
attr interpolationmode none
attr recordingmode sum(packetBytes)
attr source packetDropReasonIsNoInterfaceFound(packetDropped)
attr title "packet drop: no interface found, sum(packetBytes)"
scalar Network.server.ipv4.ip packetDropNoRouteFound:count 0
attr interpolationmode none
attr recordingmode count
attr source packetDropReasonIsNoRouteFound(packetDropped)
attr title "packet drop: no route found, count"
scalar Network.server.ipv4.ip packetDropNoRouteFound:sum(packetBytes) 0
attr interpolationmode none
attr recordingmode sum(packetBytes)
attr source packetDropReasonIsNoRouteFound(packetDropped)
attr title "packet drop: no route found, sum(packetBytes)"
scalar Network.server.ipv4.ip packetDropUndefined:count 0
attr interpolationmode none
attr recordingmode count
attr source packetDropReasonIsUndefined(packetDropped)
attr title "packet drop: undefined, count"
scalar Network.server.ipv4.ip packetDropUndefined:sum(packetBytes) 0
attr interpolationmode none
attr recordingmode sum(packetBytes)
attr source packetDropReasonIsUndefined(packetDropped)
attr title "packet drop: undefined, sum(packetBytes)"
par Network.server.ipv4.arp typename "\"inet.networklayer.arp.ipv4.Arp\""
par Network.server.ipv4.arp interfaceTableModule "\"Network.server.interfaceTable\""
par Network.server.ipv4.arp routingTableModule "\"Network.server.ipv4.routingTable\""
par Network.server.ipv4.arp retryTimeout 1s
attr unit s
par Network.server.ipv4.arp retryCount 3
par Network.server.ipv4.arp cacheTimeout 120s
attr unit s
par Network.server.ipv4.arp proxyArpInterfaces "\"\""
scalar Network.server.ipv4.arp arpReplySent:count 5
attr recordingmode count
attr source arpReplySent
attr title "ARP replies sent, count"
scalar Network.server.ipv4.arp arpReplySent:sum(packetBytes) 140
attr recordingmode sum(packetBytes)
attr source arpReplySent
attr title "ARP replies sent, sum(packetBytes)"
scalar Network.server.ipv4.arp arpRequestSent:count 0
attr recordingmode count
attr source arpRequestSent
attr title "ARP request sent, count"
scalar Network.server.ipv4.arp arpRequestSent:sum(packetBytes) 0
attr recordingmode sum(packetBytes)
attr source arpRequestSent
attr title "ARP request sent, sum(packetBytes)"
scalar Network.server.ipv4.arp arpResolutionFailed:count 0
attr recordingmode count
attr title "ARP failed resolutions, count"
scalar Network.server.ipv4.arp arpResolutionCompleted:count 5
attr recordingmode count
attr title "ARP completed resolutions, count"
scalar Network.server.ipv4.arp arpResolutionInitiated:count 0
attr recordingmode count
attr title "ARP initiated resolutions, count"
par Network.server.ipv4.lp typename "\"inet.common.MessageDispatcher\""
par Network.server.ipv4.lp displayStringTextFormat "\"processed %p pk (%l)\""
par Network.server.ipv4.lp forwardServiceRegistration true
par Network.server.ipv4.lp forwardProtocolRegistration true
par Network.server.ipv4 typename "\"inet.networklayer.ipv4.Ipv4NetworkLayer\""
par Network.server.ipv4 forwarding false
par Network.server.ipv4 multicastForwarding false
par Network.server.ipv4 interfaceTableModule "\"Network.server.interfaceTable\""
par Network.server.ipv4 displayStringTextFormat "\"%i\""
par Network.server.nl typename "\"inet.common.MessageDispatcher\""
par Network.server.nl displayStringTextFormat "\"processed %p pk (%l)\""
par Network.server.nl forwardServiceRegistration true
par Network.server.nl forwardProtocolRegistration true
par Network.server.udp typename "\"inet.transportlayer.udp.Udp\""
par Network.server.udp interfaceTableModule "\"Network.server.interfaceTable\""
par Network.server.udp icmpModule "\"^.ipv4.icmp\""
par Network.server.udp icmpv6Module "\"^.ipv6.icmpv6\""
par Network.server.udp crcMode "\"declared\""
attr enum disabled,declared,computed
par Network.server.udp defaultMulticastLoop true
scalar Network.server.udp packetReceived:count 0
attr interpolationmode none
attr recordingmode count
attr source packetReceived
attr title "packets received, count"
scalar Network.server.udp packetReceived:sum(packetBytes) 0
attr interpolationmode none
attr recordingmode sum(packetBytes)
attr source packetReceived
attr title "packets received, sum(packetBytes)"
scalar Network.server.udp packetSent:count 0
attr interpolationmode none
attr recordingmode count
attr source packetSent
attr title "packets sent, count"
scalar Network.server.udp packetSent:sum(packetBytes) 0
attr interpolationmode none
attr recordingmode sum(packetBytes)
attr source packetSent
attr title "packets sent, sum(packetBytes)"
scalar Network.server.udp passedUpPk:count 0
attr interpolationmode none
attr recordingmode count
attr source packetSentToUpper
attr title "packets passed up, count"
scalar Network.server.udp droppedPkWrongPort:count 0
attr interpolationmode none
attr recordingmode count
attr source packetDropReasonIsNoPortFound(packetDropped)
attr title "packets dropped (wrong port), count"
scalar Network.server.udp droppedPkBadChecksum:count 0
attr interpolationmode none
attr recordingmode count
attr source packetDropReasonIsIncorrectlyReceived(packetDropped)
attr title "packets dropped (checksum error), count"
par Network.server.tcp.conn-1 typename "\"inet.transportlayer.tcp.TcpConnection\""
par Network.server.tcp typename "\"inet.transportlayer.tcp.Tcp\""
par Network.server.tcp crcMode "\"declared\""
attr enum declared,computed
par Network.server.tcp advertisedWindow 7504
par Network.server.tcp delayedAcksEnabled false
par Network.server.tcp nagleEnabled true
par Network.server.tcp limitedTransmitEnabled false
par Network.server.tcp increasedIWEnabled false
par Network.server.tcp sackSupport false
par Network.server.tcp windowScalingSupport false
par Network.server.tcp windowScalingFactor -1
par Network.server.tcp timestampSupport false
par Network.server.tcp mss 536
par Network.server.tcp msl 120s
attr unit s
par Network.server.tcp tcpAlgorithmClass "\"TcpReno\""
[...]
par Network.Httpserver.eth[0] interfaceTableModule "\"Network.Httpserver.interfaceTable\""
par Network.Httpserver.eth[0] protocol "\"ethernetmac\""
par Network.Httpserver.eth[0] address "\"0A-AA-00-00-00-0C\""
attr mutable ""
par Network.Httpserver.eth[0] duplexMode true
par Network.Httpserver.eth[0] csmacdSupport false
par Network.Httpserver.eth[0] bitrate 0bps
attr unit bps
par Network.Httpserver.eth[0] fcsMode "\"declared\""
attr enum declared,computed
scalar Network.Httpserver.eth[0] packetDropInterfaceDown:count 0
attr interpolationmode none
attr recordingmode count
attr source packetDropReasonIsInterfaceDown(packetDropped)
attr title "packet drops: interface down, count"
scalar Network.Httpserver.eth[0] packetDropInterfaceDown:sum(packetBytes) 0
attr interpolationmode none
attr recordingmode sum(packetBytes)
attr source packetDropReasonIsInterfaceDown(packetDropped)
attr title "packet drops: interface down, sum(packetBytes)"
scalar Network.Httpserver.eth[0] packetDropNoCarrier:count 0
attr interpolationmode none
attr recordingmode count
attr source packetDropReasonIsNoCarrier(packetDropped)
attr title "packet drops: no carrier, count"
scalar Network.Httpserver.eth[0] packetDropNoCarrier:sum(packetBytes) 0
attr interpolationmode none
attr recordingmode sum(packetBytes)
attr source packetDropReasonIsNoCarrier(packetDropped)
attr title "packet drops: no carrier, sum(packetBytes)"
par Network.Httpserver.ipv4.transportIn.channel typename "\"ned.IdealChannel\""
par Network.Httpserver.ipv4.up.out[0].channel typename "\"ned.IdealChannel\""
par Network.Httpserver.ipv4.lp.out[2].channel typename "\"ned.IdealChannel\""
par Network.Httpserver.ipv4.ifIn.channel typename "\"ned.IdealChannel\""
par Network.Httpserver.ipv4.configurator typename "\"inet.networklayer.configurator.ipv4.Ipv4NodeConfigurator\""
par Network.Httpserver.ipv4.configurator interfaceTableModule "\"Network.Httpserver.interfaceTable\""
par Network.Httpserver.ipv4.configurator routingTableModule "\"Network.Httpserver.ipv4.routingTable\""
par Network.Httpserver.ipv4.configurator networkConfiguratorModule "\"configurator\""
par Network.Httpserver.ipv4.configurator configureRoutingTable true
par Network.Httpserver.ipv4.routingTable typename "\"inet.networklayer.ipv4.Ipv4RoutingTable\""
par Network.Httpserver.ipv4.routingTable interfaceTableModule "\"Network.Httpserver.interfaceTable\""
par Network.Httpserver.ipv4.routingTable routerId "\"auto\""
par Network.Httpserver.ipv4.routingTable netmaskRoutes "\"*\""
par Network.Httpserver.ipv4.routingTable forwarding false
par Network.Httpserver.ipv4.routingTable multicastForwarding false
par Network.Httpserver.ipv4.routingTable useAdminDist false
par Network.Httpserver.ipv4.routingTable routingFile "\"\""
par Network.Httpserver.ipv4.natTable typename "\"inet.networklayer.ipv4.Ipv4NatTable\""
par Network.Httpserver.ipv4.natTable networkProtocolModule "\"^.ip\""
par Network.Httpserver.ipv4.natTable config "<config/> at content:1"
par Network.Httpserver.ipv4.up typename "\"inet.common.MessageDispatcher\""
par Network.Httpserver.ipv4.up displayStringTextFormat "\"processed %p pk (%l)\""
par Network.Httpserver.ipv4.up forwardServiceRegistration true
par Network.Httpserver.ipv4.up forwardProtocolRegistration true
par Network.Httpserver.ipv4.igmp typename "\"inet.networklayer.ipv4.Igmpv2\""
par Network.Httpserver.ipv4.igmp interfaceTableModule "\"Network.Httpserver.interfaceTable\""
par Network.Httpserver.ipv4.igmp routingTableModule "\"Network.Httpserver.ipv4.routingTable\""
par Network.Httpserver.ipv4.igmp crcMode "\"declared\""
attr enum declared,computed
par Network.Httpserver.ipv4.igmp enabled true
par Network.Httpserver.ipv4.igmp robustnessVariable 2
par Network.Httpserver.ipv4.igmp queryInterval 125s
attr unit s
par Network.Httpserver.ipv4.igmp queryResponseInterval 10s
attr unit s
par Network.Httpserver.ipv4.igmp groupMembershipInterval 260s
attr unit s
par Network.Httpserver.ipv4.igmp otherQuerierPresentInterval 255s
attr unit s
par Network.Httpserver.ipv4.igmp startupQueryInterval 31.25s
attr unit s
par Network.Httpserver.ipv4.igmp startupQueryCount 2
par Network.Httpserver.ipv4.igmp lastMemberQueryInterval 1s
attr unit s
par Network.Httpserver.ipv4.igmp lastMemberQueryCount 2
par Network.Httpserver.ipv4.igmp unsolicitedReportInterval 10s
attr unit s
par Network.Httpserver.ipv4.icmp typename "\"inet.networklayer.ipv4.Icmp\""
par Network.Httpserver.ipv4.icmp interfaceTableModule "\"Network.Httpserver.interfaceTable\""
par Network.Httpserver.ipv4.icmp routingTableModule "\"Network.Httpserver.ipv4.routingTable\""
par Network.Httpserver.ipv4.icmp crcMode "\"declared\""
attr enum declared,computed
attr mutable ""
par Network.Httpserver.ipv4.icmp quoteLength 8B
attr mutable ""
attr unit B
par Network.Httpserver.ipv4.mp typename "\"inet.common.MessageDispatcher\""
par Network.Httpserver.ipv4.mp displayStringTextFormat "\"processed %p pk (%l)\""
par Network.Httpserver.ipv4.mp forwardServiceRegistration true
par Network.Httpserver.ipv4.mp forwardProtocolRegistration true
par Network.Httpserver.ipv4.ip typename "\"inet.networklayer.ipv4.Ipv4\""
par Network.Httpserver.ipv4.ip interfaceTableModule "\"Network.Httpserver.interfaceTable\""
par Network.Httpserver.ipv4.ip routingTableModule "\"Network.Httpserver.ipv4.routingTable\""
par Network.Httpserver.ipv4.ip arpModule "\"Network.Httpserver.ipv4.arp\""
par Network.Httpserver.ipv4.ip icmpModule "\"Network.Httpserver.ipv4.icmp\""
par Network.Httpserver.ipv4.ip crcMode "\"declared\""
attr enum declared,computed
par Network.Httpserver.ipv4.ip timeToLive 32
par Network.Httpserver.ipv4.ip multicastTimeToLive 32
par Network.Httpserver.ipv4.ip fragmentTimeout 60s
attr unit s
par Network.Httpserver.ipv4.ip limitedBroadcast false
par Network.Httpserver.ipv4.ip directBroadcastInterfaces "\"\""
scalar Network.Httpserver.ipv4.ip packetDropAddressResolutionFailed:count 0
attr interpolationmode none
attr recordingmode count
attr source packetDropReasonIsAddressResolutionFailed(packetDropped)
attr title "packet drop: address resolution failed, count"
scalar Network.Httpserver.ipv4.ip packetDropAddressResolutionFailed:sum(packetBytes) 0
attr interpolationmode none
attr recordingmode sum(packetBytes)
attr source packetDropReasonIsAddressResolutionFailed(packetDropped)
attr title "packet drop: address resolution failed, sum(packetBytes)"
scalar Network.Httpserver.ipv4.ip packetDropHopLimitReached:count 0
attr interpolationmode none
attr recordingmode count
attr source packetDropReasonIsHopLimitReached(packetDropped)
attr title "packet drop: hop limit reached, count"
scalar Network.Httpserver.ipv4.ip packetDropHopLimitReached:sum(packetBytes) 0
attr interpolationmode none
attr recordingmode sum(packetBytes)
attr source packetDropReasonIsHopLimitReached(packetDropped)
attr title "packet drop: hop limit reached, sum(packetBytes)"
scalar Network.Httpserver.ipv4.ip packetDropForwardingDisabled:count 0
attr interpolationmode none
attr recordingmode count
attr source packetDropReasonIsForwardingDisabled(packetDropped)
attr title "packet drop: forwarding disabled, count"
scalar Network.Httpserver.ipv4.ip packetDropForwardingDisabled:sum(packetBytes) 0
attr interpolationmode none
attr recordingmode sum(packetBytes)
attr source packetDropReasonIsForwardingDisabled(packetDropped)
attr title "packet drop: forwarding disabled, sum(packetBytes)"
scalar Network.Httpserver.ipv4.ip packetDropNoInterfaceFound:count 0
attr interpolationmode none
attr recordingmode count
attr source packetDropReasonIsNoInterfaceFound(packetDropped)
attr title "packet drop: no interface found, count"
scalar Network.Httpserver.ipv4.ip packetDropNoInterfaceFound:sum(packetBytes) 0
attr interpolationmode none
attr recordingmode sum(packetBytes)
attr source packetDropReasonIsNoInterfaceFound(packetDropped)
attr title "packet drop: no interface found, sum(packetBytes)"
scalar Network.Httpserver.ipv4.ip packetDropNoRouteFound:count 0
attr interpolationmode none
attr recordingmode count
attr source packetDropReasonIsNoRouteFound(packetDropped)
attr title "packet drop: no route found, count"
scalar Network.Httpserver.ipv4.ip packetDropNoRouteFound:sum(packetBytes) 0
attr interpolationmode none
attr recordingmode sum(packetBytes)
attr source packetDropReasonIsNoRouteFound(packetDropped)
attr title "packet drop: no route found, sum(packetBytes)"
scalar Network.Httpserver.ipv4.ip packetDropUndefined:count 0
attr interpolationmode none
attr recordingmode count
attr source packetDropReasonIsUndefined(packetDropped)
attr title "packet drop: undefined, count"
scalar Network.Httpserver.ipv4.ip packetDropUndefined:sum(packetBytes) 0
attr interpolationmode none
attr recordingmode sum(packetBytes)
attr source packetDropReasonIsUndefined(packetDropped)
attr title "packet drop: undefined, sum(packetBytes)"
par Network.Httpserver.ipv4.arp typename "\"inet.networklayer.arp.ipv4.Arp\""
par Network.Httpserver.ipv4.arp interfaceTableModule "\"Network.Httpserver.interfaceTable\""
par Network.Httpserver.ipv4.arp routingTableModule "\"Network.Httpserver.ipv4.routingTable\""
par Network.Httpserver.ipv4.arp retryTimeout 1s
attr unit s
par Network.Httpserver.ipv4.arp retryCount 3
par Network.Httpserver.ipv4.arp cacheTimeout 120s
attr unit s
par Network.Httpserver.ipv4.arp proxyArpInterfaces "\"\""
scalar Network.Httpserver.ipv4.arp arpReplySent:count 5
attr recordingmode count
attr source arpReplySent
attr title "ARP replies sent, count"
scalar Network.Httpserver.ipv4.arp arpReplySent:sum(packetBytes) 140
attr recordingmode sum(packetBytes)
attr source arpReplySent
attr title "ARP replies sent, sum(packetBytes)"
scalar Network.Httpserver.ipv4.arp arpRequestSent:count 0
attr recordingmode count
attr source arpRequestSent
attr title "ARP request sent, count"
scalar Network.Httpserver.ipv4.arp arpRequestSent:sum(packetBytes) 0
attr recordingmode sum(packetBytes)
attr source arpRequestSent
attr title "ARP request sent, sum(packetBytes)"
scalar Network.Httpserver.ipv4.arp arpResolutionFailed:count 0
attr recordingmode count
attr title "ARP failed resolutions, count"
scalar Network.Httpserver.ipv4.arp arpResolutionCompleted:count 5
attr recordingmode count
attr title "ARP completed resolutions, count"
scalar Network.Httpserver.ipv4.arp arpResolutionInitiated:count 0
attr recordingmode count
attr title "ARP initiated resolutions, count"
par Network.Httpserver.ipv4.lp typename "\"inet.common.MessageDispatcher\""
par Network.Httpserver.ipv4.lp displayStringTextFormat "\"processed %p pk (%l)\""
par Network.Httpserver.ipv4.lp forwardServiceRegistration true
par Network.Httpserver.ipv4.lp forwardProtocolRegistration true
par Network.Httpserver.ipv4 typename "\"inet.networklayer.ipv4.Ipv4NetworkLayer\""
par Network.Httpserver.ipv4 forwarding false
par Network.Httpserver.ipv4 multicastForwarding false
par Network.Httpserver.ipv4 interfaceTableModule "\"Network.Httpserver.interfaceTable\""
par Network.Httpserver.ipv4 displayStringTextFormat "\"%i\""
par Network.Httpserver.nl typename "\"inet.common.MessageDispatcher\""
par Network.Httpserver.nl displayStringTextFormat "\"processed %p pk (%l)\""
par Network.Httpserver.nl forwardServiceRegistration true
par Network.Httpserver.nl forwardProtocolRegistration true
par Network.Httpserver.udp typename "\"inet.transportlayer.udp.Udp\""
par Network.Httpserver.udp interfaceTableModule "\"Network.Httpserver.interfaceTable\""
par Network.Httpserver.udp icmpModule "\"^.ipv4.icmp\""
par Network.Httpserver.udp icmpv6Module "\"^.ipv6.icmpv6\""
par Network.Httpserver.udp crcMode "\"declared\""
attr enum disabled,declared,computed
par Network.Httpserver.udp defaultMulticastLoop true
scalar Network.Httpserver.udp packetReceived:count 0
attr interpolationmode none
attr recordingmode count
attr source packetReceived
attr title "packets received, count"
scalar Network.Httpserver.udp packetReceived:sum(packetBytes) 0
attr interpolationmode none
attr recordingmode sum(packetBytes)
attr source packetReceived
attr title "packets received, sum(packetBytes)"
scalar Network.Httpserver.udp packetSent:count 0
attr interpolationmode none
attr recordingmode count
attr source packetSent
attr title "packets sent, count"
scalar Network.Httpserver.udp packetSent:sum(packetBytes) 0
attr interpolationmode none
attr recordingmode sum(packetBytes)
attr source packetSent
attr title "packets sent, sum(packetBytes)"
scalar Network.Httpserver.udp passedUpPk:count 0
attr interpolationmode none
attr recordingmode count
attr source packetSentToUpper
attr title "packets passed up, count"
scalar Network.Httpserver.udp droppedPkWrongPort:count 0
attr interpolationmode none
attr recordingmode count
attr source packetDropReasonIsNoPortFound(packetDropped)
attr title "packets dropped (wrong port), count"
scalar Network.Httpserver.udp droppedPkBadChecksum:count 0
attr interpolationmode none
attr recordingmode count
attr source packetDropReasonIsIncorrectlyReceived(packetDropped)
attr title "packets dropped (checksum error), count"
par Network.Httpserver.tcp.conn-5 typename "\"inet.transportlayer.tcp.TcpConnection\""
par Network.Httpserver.tcp.conn-141 typename "\"inet.transportlayer.tcp.TcpConnection\""
par Network.Httpserver.tcp typename "\"inet.transportlayer.tcp.Tcp\""
par Network.Httpserver.tcp crcMode "\"declared\""
attr enum declared,computed
par Network.Httpserver.tcp advertisedWindow 7504
par Network.Httpserver.tcp delayedAcksEnabled false
par Network.Httpserver.tcp nagleEnabled true
par Network.Httpserver.tcp limitedTransmitEnabled false
par Network.Httpserver.tcp increasedIWEnabled false
par Network.Httpserver.tcp sackSupport false
par Network.Httpserver.tcp windowScalingSupport false
par Network.Httpserver.tcp windowScalingFactor -1
par Network.Httpserver.tcp timestampSupport false
par Network.Httpserver.tcp mss 536
par Network.Httpserver.tcp msl 120s
attr unit s
par Network.Httpserver.tcp tcpAlgorithmClass "\"TcpReno\""
attr enum TcpVegas,TcpWestwood,TcpNewReno,TcpReno,TcpTahoe,TcpNoCongestionControl
par Network.Httpserver.tcp useDataNotification false
par Network.Httpserver.tcp dupthresh 3
par Network.Httpserver.tcp initialSsthresh 4294967295
par Network.Httpserver.tcp stopOperationExtraTime 0s
attr unit s
par Network.Httpserver.tcp stopOperationTimeout 2s
attr unit s
par Network.Httpserver.tcp ecnWillingness false
par Network.Httpserver.tcp dctcpGamma 0.0625
par Network.Httpserver.tn typename "\"inet.common.MessageDispatcher\""
par Network.Httpserver.tn displayStringTextFormat "\"processed %p pk (%l)\""
par Network.Httpserver.tn forwardServiceRegistration true
par Network.Httpserver.tn forwardProtocolRegistration true
par Network.Httpserver.app[0] typename "\"inet.applications.tcpapp.TcpGenericServerApp\""
par Network.Httpserver.app[0] localAddress "\"Httpserver\""
par Network.Httpserver.app[0] localPort 80
par Network.Httpserver.app[0] replyDelay 1s
attr unit s
par Network.Httpserver.app[0] stopOperationExtraTime -1s
attr unit s
par Network.Httpserver.app[0] stopOperationTimeout 2s
attr unit s
scalar Network.Httpserver.app[0] packetReceived:count 90
attr interpolationmode none
attr recordingmode count
attr source packetReceived
attr title "packets received, count"
scalar Network.Httpserver.app[0] packetReceived:sum(packetBytes) 31583
attr interpolationmode none
attr recordingmode sum(packetBytes)
attr source packetReceived
attr title "packets received, sum(packetBytes)"
statistic Network.Httpserver.app[0] endToEndDelay:histogram
field count 90
field mean 8.9050666666667e-06
field stddev 7.5272085937272e-07
field min 7.92e-06
field max 1.4704e-05
field sum 0.000801456
field sqrsum 7.187445504e-09
attr interpolationmode none
attr recordingmode histogram
attr source dataAge(packetReceived)
attr title "end-to-end delay"
attr unit s
bin	-inf	0
bin	6.2e-06	0
bin	6.4e-06	0
bin	6.6e-06	0
bin	6.8e-06	0
bin	7e-06	0
bin	7.2e-06	0
bin	7.4e-06	0
bin	7.6e-06	0
bin	7.8e-06	2
bin	8e-06	4
bin	8.2e-06	10
bin	8.4e-06	12
bin	8.6e-06	14
bin	8.8e-06	18
bin	9e-06	11
bin	9.2e-06	9
bin	9.4e-06	6
bin	9.6e-06	1
bin	9.8e-06	2
bin	1e-05	0
bin	1.02e-05	0
bin	1.04e-05	0
bin	1.06e-05	0
bin	1.08e-05	0
bin	1.1e-05	0
bin	1.12e-05	0
bin	1.14e-05	0
bin	1.16e-05	0
bin	1.18e-05	0
bin	1.2e-05	0
bin	1.22e-05	0
bin	1.24e-05	0
bin	1.26e-05	0
bin	1.28e-05	0
bin	1.3e-05	0
bin	1.32e-05	0
bin	1.34e-05	0
bin	1.36e-05	0
bin	1.38e-05	0
bin	1.4e-05	0
bin	1.42e-05	0
bin	1.44e-05	0
bin	1.46e-05	1
bin	1.48e-05	0
bin	1.5e-05	0
bin	1.52e-05	0
bin	1.54e-05	0
bin	1.56e-05	0
bin	1.58e-05	0
bin	1.6e-05	0
bin	1.62e-05	0
bin	1.64e-05	0
statistic Network.Httpserver.app[0] endToEndDelay:weightedHistogram
field count 90
field mean 8.9204810182693e-06
field stddev 7.3684431008163e-07
field min 7.92e-06
field max 1.4704e-05
field weights 252664
field weightedSum 2.253884416
field sqrSumWeights 711794880
field weightedSqrSum 2.024138487808e-05
attr interpolationmode none
attr recordingmode weightedHistogram
attr source dataAge(packetReceived)
attr title "end-to-end delay, weightedHistogram"
attr unit s
bin	-inf	0
bin	6.2e-06	0
bin	6.4e-06	0
bin	6.6e-06	0
bin	6.8e-06	0
bin	7e-06	0
bin	7.2e-06	0
bin	7.4e-06	0
bin	7.6e-06	0
bin	7.8e-06	4872
bin	8e-06	10120
bin	8.2e-06	26272
bin	8.4e-06	32776
bin	8.6e-06	38768
bin	8.8e-06	52432
bin	9e-06	32208
bin	9.2e-06	26096
bin	9.4e-06	17328
bin	9.6e-06	3016
bin	9.8e-06	6104
bin	1e-05	0
bin	1.02e-05	0
bin	1.04e-05	0
bin	1.06e-05	0
bin	1.08e-05	0
bin	1.1e-05	0
bin	1.12e-05	0
bin	1.14e-05	0
bin	1.16e-05	0
bin	1.18e-05	0
bin	1.2e-05	0
bin	1.22e-05	0
bin	1.24e-05	0
bin	1.26e-05	0
bin	1.28e-05	0
bin	1.3e-05	0
bin	1.32e-05	0
bin	1.34e-05	0
bin	1.36e-05	0
bin	1.38e-05	0
bin	1.4e-05	0
bin	1.42e-05	0
bin	1.44e-05	0
bin	1.46e-05	2672
bin	1.48e-05	0
bin	1.5e-05	0
bin	1.52e-05	0
bin	1.54e-05	0
bin	1.56e-05	0
bin	1.58e-05	0
bin	1.6e-05	0
bin	1.62e-05	0
bin	1.64e-05	0
scalar Network.Httpserver.app[0] packetSent:count 89
attr interpolationmode none
attr recordingmode count
attr source packetSent
attr title "packets sent, count"
scalar Network.Httpserver.app[0] packetSent:sum(packetBytes) 199319
attr interpolationmode none
attr recordingmode sum(packetBytes)
attr source packetSent
attr title "packets sent, sum(packetBytes)"
par Network.Httpserver.at typename "\"inet.common.MessageDispatcher\""
par Network.Httpserver.at displayStringTextFormat "\"processed %p pk (%l)\""
par Network.Httpserver.at forwardServiceRegistration true
par Network.Httpserver.at forwardProtocolRegistration true
par Network.Httpserver typename "\"inet.node.inet.StandardHost\""
par Network.Httpserver hasStatus false
par Network.Httpserver osgModel "\"\""
par Network.Httpserver osgModelColor "\"\""
par Network.Httpserver canvasImage "\"\""
par Network.Httpserver canvasImageColor "\"\""
par Network.Httpserver recordPcap false
par Network.Httpserver numPcapRecorders 0
par Network.Httpserver numLoInterfaces 1
par Network.Httpserver numWlanInterfaces 0
par Network.Httpserver numEthInterfaces 0
par Network.Httpserver numPppInterfaces 0
par Network.Httpserver numTunInterfaces 0
par Network.Httpserver numVirtInterfaces 0
par Network.Httpserver fcsMode "\"declared\""
attr enum declared,computed
par Network.Httpserver hasIpv4 true
par Network.Httpserver hasIpv6 false
par Network.Httpserver hasGn false
par Network.Httpserver forwarding false
par Network.Httpserver multicastForwarding false
par Network.Httpserver hasUdp true
par Network.Httpserver hasTcp true
par Network.Httpserver hasSctp false
par Network.Httpserver numApps 1
par Network typename "\"Network\""

